1

  ABAQUS VERSION 6.4-1                                     DATE 06-Apr-2008   TIME 00:12:49        PAGE     1
 





    AAAAAA     BBBBBBBBB      AAAAAA      QQQQQQQQ    U        U    SSSSSSSS
   A      A    B        B    A      A    Q        Q   U        U   S
  A        A   B        B   A        A   Q        Q   U        U   S
  A        A   B        B   A        A   Q        Q   U        U   S
  AAAAAAAAAA   BBBBBBBBB    AAAAAAAAAA   Q        Q   U        U    SSSSSSSS
  A        A   B        B   A        A   Q    Q   Q   U        U            S
  A        A   B        B   A        A   Q     Q  Q   U        U            S
  A        A   B        B   A        A   Q      Q Q   U        U            S
  A        A   BBBBBBBBB    A        A    QQQQQQQQ     UUUUUUUU     SSSSSSSS
 



                      This program has been developed by
 
                                  ABAQUS, Inc.
                                1080 Main Street
                             Pawtucket, R.I. 02860
 


                   Available for internal use at University of Virginia. 
                   Support of your usage is not included in the license
                   price.  To purchase support, or send information to ABAQUS, Inc.
                   about a suspected error, please follow the procedures
                   described in the ABAQUS academic support instructions
                   document. A copy of this document has been sent to the
                   designated user at your site. Additional copies can be
                   obtained by contacting ABAQUS, Inc. or your local ABAQUS
                   representative.

                   Should you have any questions concerning the terms of
                   this academic license, please contact the designated
                   user at your university, Brad Sayler
 
                        On machine d107-13 
                        you are authorized to run
                        ABAQUS/Standard until 31-Dec-2008

                        Your site id is: 08UVA_X 


 
                    For assistance or any other information contact

                           ABAQUS, INC.
                           1080 Main Street
                           Pawtucket, RI 02860-4847
                           U.S.A.
                           Tel: (1) 401 727 4200
                           Fax: (1) 401 727 4208
                           E-mail: info@abaqus.com
                           Web: http://www.abaqus.com
                           Technical support: support@abaqus.com 


                * * * * * * * * * * * * * * * * * * * * * * * * * * * * * * 
                *                                                         * 
                *                   *****************                     * 
                *                   *  N O T I C E  *                     * 
                *                   *****************                     * 
                *                                                         * 
                *                                                         * 
                *                 ABAQUS VERSION 6.4-1                    * 
                *                                                         * 
                *          BUILD ID: 2003_09_29-11.18.28 46457            * 
                *                                                         * 
                *                                                         * 
                *  Please make sure you are using version 6.4 manuals     * 
                *  plus the notes accompanying this release.              * 
                *                                                         * 
                *                                                         * 
                *   This program may not be used for commercial purposes  * 
                *           without payment of a monthly charge.          * 
                *                                                         * 
                * * * * * * * * * * * * * * * * * * * * * * * * * * * * * * 


 



     PROCESSING PART, INSTANCE, AND ASSEMBLY INFORMATION
   *******************************************************


     END PROCESSING PART, INSTANCE, AND ASSEMBLY INFORMATION
   ***********************************************************




     OPTIONS BEING PROCESSED
   ***************************


  *Heading
          2-D plate with hole: 8-noded elements                                                                                                                                                                                                                           
  *NODE
  *NODE,NSET=N1
  *NODE,NSET=N2
  *NODE,NSET=N3
  *NODE,NSET=N4
  *NODE,NSET=N5
  *NODE,NSET=N6
  *NODE,NSET=N7
  *NGEN,NSET=ARC1,LINE=C
  *NGEN,NSET=ARC2,LINE=C
  *NFILL,NSET=ALL, BIAS= 1.000
  *NGEN,NSET=ROW1
  *NGEN,NSET=ROW1
  *NFILL,NSET=ALL, BIAS= 1.000
  *ELEMENT, ELSET=ALL, TYPE=CPS8
  *ELGEN, ELSET=ALL
  *ELSET,ELSET=TOP,GENERATE
  *NSET, NSET=YAXIS,GENERATE
  *NSET, NSET=XAXIS,GENERATE
  *MATERIAL,NAME=ALUM
  *ELASTIC
  *SOLID SECTION, ELSET=ALL, MAT=ALUM
  *BOUNDARY
  *SOLID SECTION, ELSET=ALL, MAT=ALUM
  *STEP
  *STEP
  *STEP
  *STATIC
  *BOUNDARY
  *DLOAD
  *EL PRINT
  *END STEP
  *STEP
  *STATIC
  *BOUNDARY
  *NODE PRINT
  *END STEP
1

   ABAQUS VERSION 6.4-1                                 DATE 06-Apr-2008       TIME 00:12:49        PAGE    2
   For use at None under academic license from ABAQUS, Inc.                                                                        

     2-D plate with hole: 8-noded elements                                           



                            P R O B L E M   S I Z E


          NUMBER OF ELEMENTS IS                                   192
          NUMBER OF NODES IS                                      641
          NUMBER OF NODES DEFINED BY THE USER                     641
          TOTAL NUMBER OF VARIABLES IN THE MODEL                 1282
          (DEGREES OF FREEDOM PLUS ANY LAGRANGE MULTIPLIER VARIABLES)



                              END OF USER INPUT PROCESSING



     JOB TIME SUMMARY
       USER TIME (SEC)      =  0.30000    
       SYSTEM TIME (SEC)    =  0.10000    
       TOTAL CPU TIME (SEC) =  0.40000    
       WALLCLOCK TIME (SEC) =          0
1

   ABAQUS VERSION 6.4-1                                     DATE 06-Apr-2008   TIME 00:12:50        PAGE    1
   For use at None under academic license from ABAQUS, Inc.                                                                        

     2-D plate with hole: 8-noded elements                                                     STEP    1  INCREMENT    1
                                                                                          TIME COMPLETED IN THIS STEP   0.00    


                        S T E P       1     S T A T I C   A N A L Y S I S


                                                                                          

     AUTOMATIC TIME CONTROL WITH -
          A SUGGESTED INITIAL TIME INCREMENT OF                 1.00    
          AND A TOTAL TIME PERIOD OF                            1.00    
          THE MINIMUM TIME INCREMENT ALLOWED IS                1.000E-06
          THE MAXIMUM TIME INCREMENT ALLOWED IS                 1.00    

     LINEAR EQUATION SOLVER TYPE         DIRECT SPARSE
  
  
  
                   M E M O R Y   A N D   D I S K   E S T I M A T E
  
  
           SUMMARY FOR CURRENT NODE ORDERING
          (NOTE THAT IF NODE ORDERING CHANGES THE SIZE ESTIMATES FOR THE STEPS WILL CHANGE)
  
  
           STEP   MAXIMUM DOF     FLOATING PT    MINIMUM MEMORY      MEMORY TO      REQUIRED DISKSPACE
                  WAVEFRONT       OPERATIONS       REQUIRED        MINIMIZE I/O
                                PER ITERATION     (MBYTES)           (MBYTES)          (KBYTES)
  
             1          90        2.56E+006         14.73              14.73            657.84
          ----    ---------      ------------    -------------     -------------      -------------
           MAX          90        2.56E+006         14.73              14.73            657.84
  
  
          THE TABLE ABOVE PROVIDES A STEP BY STEP SUMMARY OF SOME BASIC SIZING INFORMATION
          FOR THE PROBLEM. SOME FURTHER DESCRIPTION OF THE PARAMETERS GIVEN FOLLOWS:
  
          (1) MAXIMUM DOF WAVEFRONT - SIZE OF THE BIGGEST FRONT IN THE EQUATION SOLVER.
              PROVIDES A BASIC SIZING OF THE MOST MEMORY INTENSIVE SEGMENT OF SOLVER.
          (2) FLOATING POINT OPERATIONS PER ITERATION - MEASURE OF THE NUMBER OF FLOATING
              POINT OPERATIONS REQUIRED FOR A SINGLE SOLVER PASS. ON A GIVEN PLATFORM
              THE TIME REQUIRED FOR A SOLVER PASS WILL BE ROUGHLY A LINEAR FUNCTION
              OF THIS VALUE.
              NOTE - EXCEPT FOR THE FIRST STEP, THE VALUE IN THIS TABLE DOES NOT INCLUDE
                     ADDITIONAL FLOATING POINT OPERATIONS THAT ARE REQUIRED IN MULTIPLE LOAD
                     CASE STEPS WHEN CONSTRAINTS CHANGE FROM LOAD CASE TO LOAD CASE.  THIS
                     SITUATION CAUSES A REORDERING TO BE PERFORMED, AT WHICH TIME AN UPPER
                     BOUND ON THE NUMBER OF ADDITIONAL FLOATING POINT OPERATIONS WILL BE
                     CALCULATED AND INCLUDED UNDER THE ESTIMATE SUMMARIES FOR THE RELEVANT
                     STEPS (SEE NOTE BELOW ON REORDERING).
          (3) MINIMUM MEMORY REQUIRED - MINIMUM POSSIBLE MEMORY VALUE FOR standard_memory
              THAT ENABLES ABAQUS TO SOLVE THE PROBLEM. USE OF MEMORY WILL BE MINIMIZED BY
              WRITING AS MUCH INFORMATION AS POSSIBLE TO DISK WHICH WILL INCREASE I/O TIME.
          (4) MEMORY TO MINIMIZE I/O - VALUE OF standard_memory THAT ALLOWS ABAQUS TO KEEP
              ALL SIGNIFICANT SCRATCH FILES IN MEMORY. THIS WILL MINIMIZE I/O TIME FOR THE USER
              WITH ACCESS TO A LARGE AMOUNT OF MEMORY.
          (5) REQUIRED DISKSPACE - AMOUNT OF DISK REQUIRED FOR SCRATCH FILES. THESE WILL BE
              DELETED AT THE END OF THE ANALYSIS.
  
  
           NOTE - WHENEVER POSSIBLE THE USER SHOULD SET standard_memory TO BE LESS THAN THE
          PHYSICAL MEMORY ON THE MACHINE. UNLESS NECESSARY USERS SHOULD NOT MAKE USE
          OF VIRTUAL MEMORY EVEN IN AN ATTEMPT TO KEEP SCRATCH FILES IN MEMORY.
  
           NOTE - IF A REORDERING IS PERFORMED (THIS WILL GENERALLY BE DONE ONLY FOR 3D-3D
          LARGE SLIDING PROBLEMS), THE SIZE ESTIMATES DONE AT THIS TIME WILL NO LONGER BE VALID.
          THE ESTIMATES WILL BE REDONE IN THE EVENT OF A REORDERING AND A NEW SUMMARY WILL BE
          BE PRINTED FOR THE REMAINING STEPS.
  
  
  
           S I Z E   E S T I M A T E S   F O R   C U R R E N T   S T E P
  
          NUMBER OF EQUATIONS                        1282
          MAX DOF WAVEFRONT                          90
          FLOATING POINT OPS PER SOLVER ITERATION   2.56E+006
          MEMORY USED FOR STEP                      14.82 MBYTES
  
  
           ESTIMATED FILE SIZES
  
           FILE           KWORDS           KBYTES
  
          .fct            51.947          405.836
          .nck             3.072           24.000
          .opr            29.184          228.000
          -------        -------          -------
           TOTAL          84.203          657.836
  


                                INCREMENT     1 SUMMARY


 TIME INCREMENT COMPLETED   1.00    ,  FRACTION OF STEP COMPLETED   1.00    
 STEP TIME COMPLETED        1.00    ,  TOTAL TIME COMPLETED         1.00    



                                                  E L E M E N T   O U T P U T





   THE FOLLOWING TABLE IS PRINTED FOR ALL ELEMENTS WITH TYPE CPS8 AT THE INTEGRATION POINTS

    ELEMENT  PT FOOT-       S11         S22         S12         E11         E22         E12     
                NOTE 

          1   1         1.0881E+07  2.8447E+08 -5.6765E+06 -1.0637E-03  4.0172E-03 -2.1084E-04  
          1   2         2.0706E+07  2.3299E+08 -2.9069E+06 -7.0271E-04  3.2397E-03 -1.0797E-04  
          1   3         3.6772E+07  2.0211E+08 -1.3536E+06 -3.4086E-04  2.7296E-03 -5.0277E-05  
          1   4         1.3937E+07  2.7979E+08 -2.3928E+07 -1.0000E-03  3.9373E-03 -8.8875E-04  
          1   5         2.1512E+07  2.3027E+08 -1.4119E+07 -6.7955E-04  3.1973E-03 -5.2442E-04  
          1   6         3.5525E+07  2.0115E+08 -6.2451E+06 -3.5458E-04  2.7213E-03 -2.3196E-04  
          1   7         1.6834E+07  2.6738E+08 -4.0852E+07 -9.0545E-04  3.7476E-03 -1.5173E-03  
          1   8         2.2240E+07  2.2189E+08 -2.4367E+07 -6.3325E-04  3.0745E-03 -9.0506E-04  
          1   9         3.4287E+07  1.9641E+08 -1.0498E+07 -3.5192E-04  2.6589E-03 -3.8993E-04  
          2   1         1.9902E+07  2.5700E+08 -4.9764E+07 -8.1710E-04  3.5861E-03 -1.8484E-03  
          2   2         2.3061E+07  2.1669E+08 -2.9225E+07 -5.9925E-04  2.9968E-03 -1.0855E-03  
          2   3         3.3001E+07  1.9306E+08 -1.3022E+07 -3.5593E-04  2.6165E-03 -4.8367E-04  
          2   4         2.7139E+07  2.3726E+08 -6.1758E+07 -6.2913E-04  3.2731E-03 -2.2939E-03  
          2   5         2.4830E+07  2.0374E+08 -3.7456E+07 -5.1844E-04  2.8041E-03 -1.3912E-03  
          2   6         2.9792E+07  1.8621E+08 -1.7901E+07 -3.7242E-04  2.5324E-03 -6.6488E-04  
          2   7         3.3068E+07  2.1213E+08 -7.0458E+07 -4.3673E-04  2.8887E-03 -2.6170E-03  
          2   8         2.5711E+07  1.8681E+08 -4.3282E+07 -4.3330E-04  2.5585E-03 -1.6076E-03  
          2   9         2.6082E+07  1.7666E+08 -2.1171E+07 -3.8453E-04  2.4120E-03 -7.8635E-04  
          3   1         3.6517E+07  1.9516E+08 -7.3339E+07 -3.1473E-04  2.6315E-03 -2.7240E-03  
          3   2         2.6507E+07  1.7793E+08 -4.5715E+07 -3.8386E-04  2.4282E-03 -1.6980E-03  
          3   3         2.3750E+07  1.7043E+08 -2.3154E+07 -3.9112E-04  2.3329E-03 -8.6001E-04  
          3   4         4.2506E+07  1.6770E+08 -7.4778E+07 -1.1149E-04  2.2136E-03 -2.7775E-03  
          3   5         2.7070E+07  1.5861E+08 -4.8448E+07 -2.9303E-04  2.1498E-03 -1.7995E-03  
          3   6         1.9363E+07  1.5843E+08 -2.7111E+07 -4.0236E-04  2.1803E-03 -1.0070E-03  
          3   7         4.5753E+07  1.3848E+08 -7.2628E+07  6.0109E-05  1.7823E-03 -2.6976E-03  
          3   8         2.5727E+07  1.3794E+08 -4.8522E+07 -2.2366E-04  1.8604E-03 -1.8022E-03  
          3   9         1.3830E+07  1.4546E+08 -2.9242E+07 -4.2584E-04  2.0188E-03 -1.0861E-03  
          4   1         4.5917E+07  1.2065E+08 -6.9026E+07  1.3888E-04  1.5268E-03 -2.5638E-03  
          4   2         2.5359E+07  1.2775E+08 -4.8151E+07 -1.8523E-04  1.7163E-03 -1.7885E-03  
          4   3         1.0869E+07  1.3723E+08 -3.0365E+07 -4.3284E-04  1.9138E-03 -1.1278E-03  
          4   4         4.4934E+07  9.4470E+07 -6.1005E+07  2.3705E-04  1.1570E-03 -2.2659E-03  
          4   5         2.2387E+07  1.0725E+08 -4.5420E+07 -1.3983E-04  1.4362E-03 -1.6870E-03  
          4   6         6.0577E+06  1.2181E+08 -3.2474E+07 -4.3551E-04  1.7142E-03 -1.2062E-03  
          4   7         4.0676E+07  6.9931E+07 -5.0818E+07  2.8139E-04  8.2468E-04 -1.8875E-03  
          4   8         1.7122E+07  8.7902E+07 -4.1004E+07 -1.3212E-04  1.1824E-03 -1.5230E-03  
          4   9        -1.6275E+05  1.0711E+08 -3.3325E+07 -4.6136E-04  1.5308E-03 -1.2378E-03  
          5   1         3.5311E+07  5.6171E+07 -4.3489E+07  2.6371E-04  6.5111E-04 -1.6153E-03  
          5   2         1.4925E+07  7.8668E+07 -3.8599E+07 -1.2394E-04  1.0599E-03 -1.4337E-03  
          5   3        -3.2569E+06  9.8084E+07 -3.3356E+07 -4.6689E-04  1.4152E-03 -1.2389E-03  
          5   4         2.5028E+07  3.7738E+07 -3.1561E+07  1.9581E-04  4.3185E-04 -1.1723E-03  
          5   5         7.6028E+06  6.1377E+07 -3.2727E+07 -1.5443E-04  8.4423E-04 -1.2156E-03  
          5   6        -7.9349E+06  8.1770E+07 -3.3009E+07 -4.6380E-04  1.2021E-03 -1.2260E-03  
          5   7         1.2606E+07  2.2915E+07 -1.9708E+07  8.1873E-05  2.7334E-04 -7.3200E-04  
          5   8        -1.2306E+06  4.6738E+07 -2.6739E+07 -2.1789E-04  6.7296E-04 -9.9318E-04  
          5   9        -1.3564E+07  6.7241E+07 -3.2375E+07 -4.8194E-04  1.0187E-03 -1.2025E-03  
          6   1         2.5272E+06  1.5325E+07 -1.2894E+07 -2.9574E-05  2.0810E-04 -4.7890E-04  
          6   2        -4.9224E+06  3.9868E+07 -2.3675E+07 -2.4118E-04  5.9064E-04 -8.7938E-04  
          6   3        -1.6320E+07  5.8801E+07 -3.1228E+07 -4.8515E-04  9.0995E-04 -1.1599E-03  
          6   4        -1.4184E+07  6.1447E+06 -3.6953E+06 -2.2896E-04  1.4857E-04 -1.3725E-04  
          6   5        -1.5032E+07  2.7972E+07 -1.7803E+07 -3.3462E-04  4.6402E-04 -6.6124E-04  
          6   6        -2.0484E+07  4.4397E+07 -2.8403E+07 -4.8290E-04  7.2203E-04 -1.0550E-03  
          6   7        -3.0400E+07  8.1040E+05  3.6869E+06 -4.3776E-04  1.4186E-04  1.3694E-04  
          6   8        -2.4820E+07  1.9002E+07 -1.3061E+07 -4.3601E-04  3.7783E-04 -4.8513E-04  
          6   9        -2.4489E+07  3.2084E+07 -2.6094E+07 -4.8735E-04  5.6330E-04 -9.6919E-04  
          7   1        -4.1437E+07 -1.6763E+06  6.7411E+06 -5.8478E-04  1.5364E-04  2.5038E-04  
          7   2        -2.8724E+07  1.4822E+07 -1.0518E+07 -4.7387E-04  3.3485E-04 -3.9065E-04  
          7   3        -2.6533E+07  2.5558E+07 -2.3883E+07 -4.8858E-04  4.7883E-04 -8.8707E-04  
          7   4        -5.7704E+07 -4.5273E+06  9.3244E+06 -8.0494E-04  1.8263E-04  3.4634E-04  
          7   5        -3.8180E+07  8.2286E+06 -6.8109E+06 -5.8070E-04  2.8118E-04 -2.5298E-04  
          7   6        -2.9843E+07  1.5547E+07 -1.9193E+07 -4.9296E-04  3.5000E-04 -7.1287E-04  
          7   7        -7.0434E+07 -4.3793E+06  9.7975E+06 -9.8744E-04  2.3930E-04  3.6391E-04  
          7   8        -4.5192E+07  4.0510E+06 -4.4893E+06 -6.6296E-04  2.5155E-04 -1.6674E-04  
          7   9        -3.1701E+07  7.4162E+06 -1.5236E+07 -4.8465E-04  2.4181E-04 -5.6591E-04  
          8   1        -7.7609E+07 -4.5234E+06  8.6401E+06 -1.0893E-03  2.6799E-04  3.2092E-04  
          8   2        -4.7694E+07  2.1788E+06 -2.8447E+06 -6.9069E-04  2.3553E-04 -1.0566E-04  
          8   3        -3.2783E+07  3.8603E+06 -1.2280E+07 -4.8487E-04  1.9565E-04 -4.5612E-04  
          8   4        -8.6142E+07 -5.4179E+06  5.5156E+06 -1.2074E-03  2.9178E-04  2.0487E-04  
          8   5        -5.2814E+07 -3.5052E+05 -1.4254E+06 -7.5298E-04  2.2134E-04 -5.2945E-05  
          8   6        -3.4820E+07 -1.5508E+05 -6.7804E+06 -4.9676E-04  1.4701E-04 -2.5184E-04  
          8   7        -8.9121E+07 -4.1431E+06  1.4797E+06 -1.2554E-03  3.2276E-04  5.4960E-05  
          8   8        -5.4080E+07 -1.0007E+06 -6.1203E+05 -7.6828E-04  2.1747E-04 -2.2733E-05  
          8   9        -3.4542E+07 -2.5656E+06 -1.6120E+06 -4.8247E-04  1.1139E-04 -5.9873E-05  
          9   1         3.6258E+07  1.8766E+08 -8.9715E+05 -2.8628E-04  2.5255E-03 -3.3323E-05  
          9   2         3.6240E+07  1.6855E+08 -1.2231E+05 -2.0463E-04  2.2525E-03 -4.5428E-06  
          9   3         3.8079E+07  1.5558E+08  3.5318E+05 -1.2277E-04  2.0593E-03  1.3118E-05  
          9   4         3.6060E+07  1.8774E+08 -3.9494E+06 -2.8946E-04  2.5275E-03 -1.4669E-04  
          9   5         3.5450E+07  1.6905E+08 -1.2359E+06 -2.1807E-04  2.2631E-03 -4.5905E-05  
          9   6         3.6739E+07  1.5649E+08  1.0309E+06 -1.4582E-04  2.0781E-03  3.8289E-05  
          9   7         3.3194E+07  1.8366E+08 -6.8595E+06 -3.1293E-04  2.4815E-03 -2.5478E-04  
          9   8         3.2268E+07  1.6623E+08 -2.2944E+06 -2.5143E-04  2.2364E-03 -8.5221E-05  
          9   9         3.3254E+07  1.5483E+08  1.6826E+06 -1.8851E-04  2.0694E-03  6.2495E-05  
         10   1         3.1336E+07  1.8086E+08 -8.6825E+06 -3.2746E-04  2.4495E-03 -3.2249E-04  
         10   2         3.0016E+07  1.6508E+08 -2.9614E+06 -2.7868E-04  2.2296E-03 -1.0999E-04  
         10   3         3.0599E+07  1.5445E+08  1.7501E+06 -2.2479E-04  2.0753E-03  6.5002E-05  
         10   4         2.8397E+07  1.7665E+08 -1.2121E+07 -3.5140E-04  2.4019E-03 -4.5021E-04  
         10   5         2.5860E+07  1.6270E+08 -5.2348E+06 -3.2787E-04  2.2135E-03 -1.9444E-04  
         10   6         2.5305E+07  1.5381E+08  5.3918E+05 -2.9766E-04  2.0888E-03  2.0027E-05  
         10   7         2.3191E+07  1.6890E+08 -1.5158E+07 -3.9257E-04  2.3135E-03 -5.6300E-04  
         10   8         1.9746E+07  1.5744E+08 -7.3234E+06 -3.9264E-04  2.1645E-03 -2.7201E-04  
         10   9         1.8333E+07  1.5085E+08 -6.8869E+05 -3.8460E-04  2.0765E-03 -2.5580E-05  
         11   1         2.0006E+07  1.6348E+08 -1.6960E+07 -4.1484E-04  2.2497E-03 -6.2995E-04  
         11   2         1.6215E+07  1.5468E+08 -8.9322E+06 -4.3128E-04  2.1403E-03 -3.3177E-04  
         11   3         1.4260E+07  1.4931E+08 -2.0961E+06 -4.3619E-04  2.0719E-03 -7.7854E-05  
         11   4         1.5473E+07  1.5492E+08 -2.0557E+07 -4.4289E-04  2.1468E-03 -7.6356E-04  
         11   5         1.0566E+07  1.4855E+08 -1.2578E+07 -4.8570E-04  2.0769E-03 -4.6717E-04  
         11   6         7.5683E+06  1.4546E+08 -5.8202E+06 -5.1528E-04  2.0456E-03 -2.1618E-04  
         11   7         9.4216E+06  1.4398E+08 -2.3562E+07 -4.8246E-04  2.0165E-03 -8.7515E-04  
         11   8         3.7224E+06  1.4037E+08 -1.5869E+07 -5.4840E-04  1.9893E-03 -5.8943E-04  
         11   9        -1.9929E+04  1.3985E+08 -9.4122E+06 -5.9966E-04  1.9980E-03 -3.4960E-04  
         12   1         5.7424E+06  1.3641E+08 -2.5051E+07 -5.0259E-04  1.9241E-03 -9.3046E-04  
         12   2         3.4007E+05  1.3554E+08 -1.8166E+07 -5.7602E-04  1.9348E-03 -6.7475E-04  
         12   3        -3.7162E+06  1.3621E+08 -1.2074E+07 -6.3686E-04  1.9618E-03 -4.4847E-04  
         12   4         1.0031E+06  1.2410E+08 -2.7974E+07 -5.1755E-04  1.7686E-03 -1.0390E-03  
         12   5        -4.6743E+06  1.2531E+08 -2.2147E+07 -6.0383E-04  1.8102E-03 -8.2259E-04  
         12   6        -8.9793E+06  1.2793E+08 -1.7079E+07 -6.7655E-04  1.8661E-03 -6.3437E-04  
         12   7        -4.2676E+06  1.1093E+08 -3.0211E+07 -5.3639E-04  1.6030E-03 -1.1221E-03  
         12   8        -9.9621E+06  1.1422E+08 -2.5591E+07 -6.3182E-04  1.6744E-03 -9.5051E-04  
         12   9        -1.4276E+07  1.1877E+08 -2.1686E+07 -7.1297E-04  1.7579E-03 -8.0547E-04  
         13   1        -7.6337E+06  1.0212E+08 -3.0895E+07 -5.4673E-04  1.4916E-03 -1.1475E-03  
         13   2        -1.2051E+07  1.0742E+08 -2.7588E+07 -6.3252E-04  1.5862E-03 -1.0247E-03  
         13   3        -1.6200E+07  1.1276E+08 -2.4359E+07 -7.1467E-04  1.6802E-03 -9.0477E-04  
         13   4        -1.1573E+07  8.7668E+07 -3.2006E+07 -5.4105E-04  1.3020E-03 -1.1888E-03  
         13   5        -1.5114E+07  9.4105E+07 -3.0059E+07 -6.1923E-04  1.4091E-03 -1.1165E-03  
         13   6        -1.8429E+07  1.0049E+08 -2.8135E+07 -6.9397E-04  1.5146E-03 -1.0450E-03  
         13   7        -1.4965E+07  7.3964E+07 -3.2445E+07 -5.3077E-04  1.1208E-03 -1.2051E-03  
         13   8        -1.7553E+07  8.1299E+07 -3.1866E+07 -5.9918E-04  1.2366E-03 -1.1836E-03  
         13   9        -1.9959E+07  8.8513E+07 -3.1249E+07 -6.6446E-04  1.3500E-03 -1.1607E-03  
         14   1        -1.7505E+07  6.5258E+07 -3.1852E+07 -5.2976E-04  1.0073E-03 -1.1831E-03  
         14   2        -1.8030E+07  7.3564E+07 -3.2360E+07 -5.7285E-04  1.1282E-03 -1.2019E-03  
         14   3        -1.9818E+07  8.1036E+07 -3.2344E+07 -6.3041E-04  1.2426E-03 -1.2014E-03  
         14   4        -2.0341E+07  5.1153E+07 -3.0292E+07 -5.0982E-04  8.1794E-04 -1.1251E-03  
         14   5        -1.9165E+07  5.9677E+07 -3.1681E+07 -5.2954E-04  9.3467E-04 -1.1767E-03  
         14   6        -1.9343E+07  6.7330E+07 -3.2510E+07 -5.6488E-04  1.0448E-03 -1.2075E-03  
         14   7        -2.1622E+07  3.9287E+07 -2.8173E+07 -4.7726E-04  6.5391E-04 -1.0464E-03  
         14   8        -1.8936E+07  4.7661E+07 -3.0337E+07 -4.7477E-04  7.6203E-04 -1.1268E-03  
         14   9        -1.7676E+07  5.5156E+07 -3.1910E+07 -4.8890E-04  8.6370E-04 -1.1852E-03  
         15   1        -2.3197E+07  3.2254E+07 -2.6128E+07 -4.6962E-04  5.6019E-04 -9.7046E-04  
         15   2        -1.8358E+07  4.0799E+07 -2.8614E+07 -4.3711E-04  6.6152E-04 -1.0628E-03  
         15   3        -1.6324E+07  4.8188E+07 -3.0423E+07 -4.3972E-04  7.5837E-04 -1.1300E-03  
         15   4        -2.5202E+07  2.1357E+07 -2.1855E+07 -4.5156E-04  4.1310E-04 -8.1177E-04  
         15   5        -1.8634E+07  2.9697E+07 -2.4338E+07 -3.9348E-04  5.0411E-04 -9.0398E-04  
         15   6        -1.4969E+07  3.6874E+07 -2.6151E+07 -3.7188E-04  5.9093E-04 -9.7133E-04  
         15   7        -2.4875E+07  1.3828E+07 -1.7216E+07 -4.1461E-04  3.0414E-04 -6.3945E-04  
         15   8        -1.7041E+07  2.1568E+07 -1.9566E+07 -3.3587E-04  3.8115E-04 -7.2673E-04  
         15   9        -1.2168E+07  2.8172E+07 -2.1262E+07 -2.9457E-04  4.5461E-04 -7.8972E-04  
         16   1        -2.5593E+07  9.8880E+06 -1.4012E+07 -4.0800E-04  2.5094E-04 -5.2043E-04  
         16   2        -1.6387E+07  1.7514E+07 -1.5880E+07 -3.0916E-04  3.2042E-04 -5.8983E-04  
         16   3        -1.0986E+07  2.3951E+07 -1.7413E+07 -2.5959E-04  3.8924E-04 -6.4676E-04  
         16   4        -2.7164E+07  4.5615E+06 -7.9815E+06 -4.0760E-04  1.8158E-04 -2.9646E-04  
         16   5        -1.7035E+07  1.2159E+07 -9.1487E+06 -2.9546E-04  2.4671E-04 -3.3981E-04  
         16   6        -1.0768E+07  1.8558E+07 -1.0025E+07 -2.3337E-04  3.1126E-04 -3.7234E-04  
         16   7        -2.5978E+07  3.2134E+06 -1.8236E+06 -3.8489E-04  1.5724E-04 -6.7732E-05  
         16   8        -1.5559E+07  1.0395E+07 -2.2334E+06 -2.6683E-04  2.1519E-04 -8.2956E-05  
         16   9        -9.0091E+06  1.6404E+07 -2.3998E+06 -1.9900E-04  2.7295E-04 -8.9134E-05  
         17   1         3.6776E+07  1.4935E+08  4.9374E+05 -1.1469E-04  1.9759E-03  1.8339E-05  
         17   2         3.4858E+07  1.4069E+08  6.9933E+05 -1.0497E-04  1.8604E-03  2.5975E-05  
         17   3         3.3619E+07  1.3428E+08  8.2550E+05 -9.5206E-05  1.7742E-03  3.0662E-05  
         17   4         3.5750E+07  1.5052E+08  1.7035E+06 -1.3436E-04  1.9970E-03  6.3274E-05  
         17   5         3.3702E+07  1.4194E+08  2.4588E+06 -1.2684E-04  1.8832E-03  9.1325E-05  
         17   6         3.2340E+07  1.3562E+08  3.1071E+06 -1.1922E-04  1.7988E-03  1.1541E-04  
         17   7         3.1916E+07  1.4913E+08  2.7535E+06 -1.8317E-04  1.9936E-03  1.0227E-04  
         17   8         2.9973E+07  1.4103E+08  4.0407E+06 -1.7621E-04  1.8862E-03  1.5008E-04  
         17   9         2.8700E+07  1.3516E+08  5.1936E+06 -1.6927E-04  1.8079E-03  1.9291E-04  
         18   1         2.9182E+07  1.4897E+08  3.0500E+06 -2.2157E-04  2.0031E-03  1.1329E-04  
         18   2         2.7250E+07  1.4134E+08  4.6718E+06 -2.1645E-04  1.9023E-03  1.7353E-04  
         18   3         2.5967E+07  1.3568E+08  6.0472E+06 -2.1054E-04  1.8270E-03  2.2461E-04  
         18   4         2.4095E+07  1.4910E+08  2.3019E+06 -2.9479E-04  2.0268E-03  8.5498E-05  
         18   5         2.2059E+07  1.4207E+08  4.3261E+06 -2.9373E-04  1.9350E-03  1.6069E-04  
         18   6         2.0667E+07  1.3700E+08  6.0751E+06 -2.9191E-04  1.8686E-03  2.2565E-04  
         18   7         1.6896E+07  1.4679E+08  1.2091E+06 -3.8773E-04  2.0246E-03  4.4910E-05  
         18   8         1.4961E+07  1.4069E+08  3.5889E+06 -3.8921E-04  1.9457E-03  1.3330E-04  
         18   9         1.3649E+07  1.3651E+08  5.6654E+06 -3.9008E-04  1.8917E-03  2.1043E-04  
         19   1         1.2718E+07  1.4563E+08 -9.9878E+04 -4.4244E-04  2.0259E-03 -3.7098E-06  
         19   2         1.0867E+07  1.4033E+08  2.4228E+06 -4.4615E-04  1.9581E-03  8.9991E-05  
         19   3         9.5532E+06  1.3652E+08  4.6434E+06 -4.4863E-04  1.9094E-03  1.7247E-04  
         19   4         6.1659E+06  1.4288E+08 -3.6049E+06 -5.2426E-04  2.0147E-03 -1.3390E-04  
         19   5         4.3291E+06  1.3852E+08 -9.2508E+05 -5.3182E-04  1.9603E-03 -3.4360E-05  
         19   6         3.0193E+06  1.3564E+08  1.4232E+06 -5.3816E-04  1.9247E-03  5.2862E-05  
         19   7        -1.3728E+06  1.3807E+08 -7.3205E+06 -6.1132E-04  1.9783E-03 -2.7190E-04  
         19   8        -3.0442E+06  1.3487E+08 -4.5436E+06 -6.2151E-04  1.9398E-03 -1.6876E-04  
         19   9        -4.2092E+06  1.3310E+08 -2.1257E+06 -6.3054E-04  1.9194E-03 -7.8954E-05  
         20   1        -5.1216E+06  1.3484E+08 -1.0030E+07 -6.5104E-04  1.9482E-03 -3.7255E-04  
         20   2        -6.5601E+06  1.3257E+08 -7.3256E+06 -6.6186E-04  1.9219E-03 -2.7209E-04  
         20   3        -7.6957E+06  1.3124E+08 -4.8622E+06 -6.7241E-04  1.9079E-03 -1.8060E-04  
         20   4        -1.0210E+07  1.2770E+08 -1.5118E+07 -6.9315E-04  1.8681E-03 -5.6151E-04  
         20   5        -1.1437E+07  1.2649E+08 -1.2496E+07 -7.0549E-04  1.8560E-03 -4.6412E-04  
         20   6        -1.2370E+07  1.2618E+08 -1.0140E+07 -7.1750E-04  1.8556E-03 -3.7664E-04  
         20   7        -1.5120E+07  1.1930E+08 -1.9983E+07 -7.2727E-04  1.7690E-03 -7.4222E-04  
         20   8        -1.6064E+07  1.1923E+08 -1.7499E+07 -7.4046E-04  1.7721E-03 -6.4995E-04  
         20   9        -1.6728E+07  1.2000E+08 -1.5304E+07 -7.5325E-04  1.7859E-03 -5.6842E-04  
         21   1        -1.6994E+07  1.1362E+08 -2.2801E+07 -7.2970E-04  1.6959E-03 -8.4688E-04  
         21   2        -1.7529E+07  1.1439E+08 -2.0532E+07 -7.4067E-04  1.7093E-03 -7.6260E-04  
         21   3        -1.8121E+07  1.1561E+08 -1.8379E+07 -7.5434E-04  1.7293E-03 -6.8264E-04  
         21   4        -1.8935E+07  1.0227E+08 -2.6878E+07 -7.0881E-04  1.5422E-03 -9.9834E-04  
         21   5        -1.9054E+07  1.0402E+08 -2.4840E+07 -7.1802E-04  1.5677E-03 -9.2261E-04  
         21   6        -1.9236E+07  1.0616E+08 -2.2933E+07 -7.2978E-04  1.5990E-03 -8.5182E-04  
         21   7        -1.9825E+07  9.0907E+07 -3.0225E+07 -6.7282E-04  1.3836E-03 -1.1226E-03  
         21   8        -1.9559E+07  9.3577E+07 -2.8455E+07 -6.8046E-04  1.4206E-03 -1.0569E-03  
         21   9        -1.9358E+07  9.6570E+07 -2.6829E+07 -6.9042E-04  1.4625E-03 -9.9651E-04  
         22   1        -1.9538E+07  8.3644E+07 -3.1479E+07 -6.3759E-04  1.2786E-03 -1.1692E-03  
         22   2        -1.8750E+07  8.6948E+07 -2.9947E+07 -6.4049E-04  1.3225E-03 -1.1123E-03  
         22   3        -1.8444E+07  9.0319E+07 -2.8420E+07 -6.5057E-04  1.3693E-03 -1.0556E-03  
         22   4        -1.8680E+07  7.0460E+07 -3.1998E+07 -5.6883E-04  1.0866E-03 -1.1885E-03  
         22   5        -1.7363E+07  7.4537E+07 -3.0726E+07 -5.6749E-04  1.1392E-03 -1.1413E-03  
         22   6        -1.6534E+07  7.8617E+07 -2.9462E+07 -5.7313E-04  1.1940E-03 -1.0943E-03  
         22   7        -1.6324E+07  5.8777E+07 -3.1498E+07 -4.8510E-04  9.0963E-04 -1.1699E-03  
         22   8        -1.4617E+07  6.3448E+07 -3.0506E+07 -4.8073E-04  9.6904E-04 -1.1331E-03  
         22   9        -1.3388E+07  6.8071E+07 -2.9519E+07 -4.8299E-04  1.0298E-03 -1.0964E-03  
         23   1        -1.4795E+07  5.1908E+07 -3.0117E+07 -4.3383E-04  8.0495E-04 -1.1186E-03  
         23   2        -1.2594E+07  5.6971E+07 -2.9289E+07 -4.2408E-04  8.6784E-04 -1.0879E-03  
         23   3        -1.1261E+07  6.1859E+07 -2.8424E+07 -4.2599E-04  9.3196E-04 -1.0558E-03  
         23   4        -1.3089E+07  4.0717E+07 -2.6091E+07 -3.6148E-04  6.3777E-04 -9.6910E-04  
         23   5        -1.0406E+07  4.6305E+07 -2.5475E+07 -3.4710E-04  7.0610E-04 -9.4622E-04  
         23   6        -8.5959E+06  5.1667E+07 -2.4810E+07 -3.4423E-04  7.7494E-04 -9.2152E-04  
         23   7        -9.7768E+06  3.2421E+07 -2.1180E+07 -2.7862E-04  5.0506E-04 -7.8670E-04  
         23   8        -6.8385E+06  3.8274E+07 -2.0783E+07 -2.6173E-04  5.7609E-04 -7.7192E-04  
         23   9        -4.7607E+06  4.3871E+07 -2.0320E+07 -2.5603E-04  6.4713E-04 -7.5474E-04  
         24   1        -8.4761E+06  2.8231E+07 -1.7369E+07 -2.4207E-04  4.3962E-04 -6.4513E-04  
         24   2        -5.2365E+06  3.4262E+07 -1.7037E+07 -2.2164E-04  5.1189E-04 -6.3282E-04  
         24   3        -3.0935E+06  3.9993E+07 -1.6701E+07 -2.1559E-04  5.8458E-04 -6.2032E-04  
         24   4        -8.1115E+06  2.2669E+07 -1.0057E+07 -2.1303E-04  3.5861E-04 -3.7355E-04  
         24   5        -4.5922E+06  2.8978E+07 -9.8853E+06 -1.8980E-04  4.3366E-04 -3.6717E-04  
         24   6        -2.1775E+06  3.4959E+07 -9.6860E+06 -1.8093E-04  5.0874E-04 -3.5977E-04  
         24   7        -6.1681E+06  2.0842E+07 -2.3960E+06 -1.7744E-04  3.2418E-04 -8.8993E-05  
         24   8        -2.6464E+06  2.7127E+07 -2.3846E+06 -1.5407E-04  3.9888E-04 -8.8570E-05  
         24   9        -2.1739E+05  3.3083E+07 -2.3222E+06 -1.4489E-04  4.7354E-04 -8.6253E-05  
         25   1         3.2290E+07  1.3114E+08  8.5692E+05 -1.0075E-04  1.7351E-03  3.1829E-05  
         25   2         3.0258E+07  1.2664E+08  8.9271E+05 -1.1049E-04  1.6795E-03  3.3158E-05  
         25   3         2.8514E+07  1.2310E+08  9.0923E+05 -1.2022E-04  1.6363E-03  3.3771E-05  
         25   4         3.1154E+07  1.3254E+08  3.2733E+06 -1.2297E-04  1.7599E-03  1.2158E-04  
         25   5         2.9126E+07  1.2801E+08  3.4140E+06 -1.3253E-04  1.7039E-03  1.2680E-04  
         25   6         2.7384E+07  1.2445E+08  3.5369E+06 -1.4215E-04  1.6605E-03  1.3137E-04  
         25   7         2.7488E+07  1.3219E+08  5.4448E+06 -1.7386E-04  1.7707E-03  2.0224E-04  
         25   8         2.5643E+07  1.2785E+08  5.6934E+06 -1.8160E-04  1.7165E-03  2.1147E-04  
         25   9         2.4069E+07  1.2447E+08  5.9251E+06 -1.8961E-04  1.6750E-03  2.2007E-04  
         26   1         2.4792E+07  1.3278E+08  6.3633E+06 -2.1488E-04  1.7906E-03  2.3635E-04  
         26   2         2.3068E+07  1.2859E+08  6.6888E+06 -2.2154E-04  1.7381E-03  2.4844E-04  
         26   3         2.1595E+07  1.2528E+08  6.9705E+06 -2.2840E-04  1.6971E-03  2.5890E-04  
         26   4         1.9699E+07  1.3435E+08  6.5644E+06 -2.9437E-04  1.8348E-03  2.4382E-04  
         26   5         1.8148E+07  1.3030E+08  7.0337E+06 -2.9919E-04  1.7837E-03  2.6125E-04  
         26   6         1.6832E+07  1.2716E+08  7.4508E+06 -3.0450E-04  1.7444E-03  2.7674E-04  
         26   7         1.2791E+07  1.3410E+08  6.2046E+06 -3.9200E-04  1.8610E-03  2.3046E-04  
         26   8         1.1557E+07  1.3041E+08  6.8227E+06 -3.9379E-04  1.8134E-03  2.5341E-04  
         26   9         1.0528E+07  1.2760E+08  7.3781E+06 -3.9646E-04  1.7777E-03  2.7404E-04  
         27   1         8.7545E+06  1.3424E+08  5.2492E+06 -4.5026E-04  1.8802E-03  1.9497E-04  
         27   2         7.7258E+06  1.3084E+08  5.9527E+06 -4.5036E-04  1.8360E-03  2.2110E-04  
         27   3         6.8565E+06  1.2819E+08  6.5949E+06 -4.5142E-04  1.8019E-03  2.4495E-04  
         27   4         2.4315E+06  1.3379E+08  2.1993E+06 -5.3865E-04  1.9009E-03  8.1688E-05  
         27   5         1.6661E+06  1.3074E+08  3.0922E+06 -5.3653E-04  1.8606E-03  1.1485E-04  
         27   6         1.0400E+06  1.2845E+08  3.9013E+06 -5.3566E-04  1.8306E-03  1.4490E-04  
         27   7        -4.5760E+06  1.3159E+08 -1.3122E+06 -6.2935E-04  1.8995E-03 -4.8738E-05  
         27   8        -4.9987E+06  1.2906E+08 -2.3332E+05 -6.2451E-04  1.8651E-03 -8.6661E-06  
         27   9        -5.3072E+06  1.2727E+08  7.3747E+05 -6.2124E-04  1.8408E-03  2.7392E-05  
         28   1        -8.0034E+06  1.2993E+08 -3.9902E+06 -6.7117E-04  1.8904E-03 -1.4821E-04  
         28   2        -8.1898E+06  1.2781E+08 -2.8326E+06 -6.6474E-04  1.8609E-03 -1.0521E-04  
         28   3        -8.3440E+06  1.2627E+08 -1.7514E+06 -6.6037E-04  1.8396E-03 -6.5053E-05  
         28   4        -1.2505E+07  1.2544E+08 -9.1574E+06 -7.1623E-04  1.8456E-03 -3.4013E-04  
         28   5        -1.2435E+07  1.2388E+08 -7.8105E+06 -7.0857E-04  1.8231E-03 -2.9010E-04  
         28   6        -1.2344E+07  1.2290E+08 -6.5713E+06 -7.0304E-04  1.8086E-03 -2.4408E-04  
         28   7        -1.6592E+07  1.1967E+08 -1.4287E+07 -7.4989E-04  1.7807E-03 -5.3065E-04  
         28   8        -1.6258E+07  1.1876E+08 -1.2772E+07 -7.4125E-04  1.7663E-03 -4.7438E-04  
         28   9        -1.5912E+07  1.1841E+08 -1.1395E+07 -7.3477E-04  1.7597E-03 -4.2324E-04  
         29   1        -1.7944E+07  1.1551E+08 -1.7329E+07 -7.5137E-04  1.7270E-03 -6.4367E-04  
         29   2        -1.7396E+07  1.1510E+08 -1.5773E+07 -7.4179E-04  1.7188E-03 -5.8585E-04  
         29   3        -1.6952E+07  1.1508E+08 -1.4307E+07 -7.3538E-04  1.7167E-03 -5.3139E-04  
         29   4        -1.8936E+07  1.0666E+08 -2.1877E+07 -7.2764E-04  1.6049E-03 -8.1259E-04  
         29   5        -1.8206E+07  1.0697E+08 -2.0213E+07 -7.1851E-04  1.6061E-03 -7.5076E-04  
         29   6        -1.7574E+07  1.0763E+08 -1.8665E+07 -7.1233E-04  1.6129E-03 -6.9328E-04  
         29   7        -1.8808E+07  9.7524E+07 -2.5757E+07 -6.8665E-04  1.4738E-03 -9.5669E-04  
         29   8        -1.7951E+07  9.8541E+07 -2.4024E+07 -6.7876E-04  1.4847E-03 -8.9230E-04  
         29   9        -1.7181E+07  9.9878E+07 -2.2431E+07 -6.7348E-04  1.5005E-03 -8.3314E-04  
         30   1        -1.7879E+07  9.1501E+07 -2.7360E+07 -6.4756E-04  1.3838E-03 -1.0162E-03  
         30   2        -1.6863E+07  9.3012E+07 -2.5654E+07 -6.3952E-04  1.4010E-03 -9.5287E-04  
         30   3        -1.6065E+07  9.4731E+07 -2.4046E+07 -6.3550E-04  1.4222E-03 -8.9313E-04  
         30   4        -1.5885E+07  8.0320E+07 -2.8510E+07 -5.7115E-04  1.2155E-03 -1.0589E-03  
         30   5        -1.4769E+07  8.2566E+07 -2.6849E+07 -5.6484E-04  1.2428E-03 -9.9726E-04  
         30   6        -1.3856E+07  8.4973E+07 -2.5296E+07 -5.6210E-04  1.2733E-03 -9.3956E-04  
         30   7        -1.2562E+07  7.0206E+07 -2.8599E+07 -4.8034E-04  1.0568E-03 -1.0622E-03  
         30   8        -1.1448E+07  7.3091E+07 -2.7032E+07 -4.7679E-04  1.0932E-03 -1.0040E-03  
         30   9        -1.0511E+07  7.6093E+07 -2.5576E+07 -4.7627E-04  1.1321E-03 -9.4997E-04  
         31   1        -1.0438E+07  6.4182E+07 -2.7567E+07 -4.2417E-04  9.6162E-04 -1.0239E-03  
         31   2        -9.2268E+06  6.7471E+07 -2.6112E+07 -4.2098E-04  1.0034E-03 -9.6988E-04  
         31   3        -8.3106E+06  7.0807E+07 -2.4745E+07 -4.2218E-04  1.0471E-03 -9.1909E-04  
         31   4        -7.7129E+06  5.4323E+07 -2.4144E+07 -3.4300E-04  8.0910E-04 -8.9679E-04  
         31   5        -6.4480E+06  5.8202E+07 -2.2908E+07 -3.4155E-04  8.5910E-04 -8.5086E-04  
         31   6        -5.4609E+06  6.2083E+07 -2.1746E+07 -3.4408E-04  9.1031E-04 -8.0772E-04  
         31   7        -3.7911E+06  4.6860E+07 -1.9761E+07 -2.5499E-04  6.8567E-04 -7.3397E-04  
         31   8        -2.5993E+06  5.1152E+07 -1.8782E+07 -2.5636E-04  7.4188E-04 -6.9761E-04  
         31   9        -1.6597E+06  5.5414E+07 -1.7861E+07 -2.6120E-04  7.9874E-04 -6.6341E-04  
         32   1        -2.1301E+06  4.3089E+07 -1.6246E+07 -2.1510E-04  6.2468E-04 -6.0342E-04  
         32   2        -8.9519E+05  4.7608E+07 -1.5448E+07 -2.1682E-04  6.8395E-04 -5.7378E-04  
         32   3         1.8318E+04  5.2066E+07 -1.4706E+07 -2.2288E-04  7.4372E-04 -5.4622E-04  
         32   4        -1.1800E+06  3.8144E+07 -9.4467E+06 -1.8033E-04  5.4996E-04 -3.5088E-04  
         32   5         1.1285E+05  4.2959E+07 -8.9882E+06 -1.8250E-04  6.1322E-04 -3.3385E-04  
         32   6         1.0886E+06  4.7689E+07 -8.5569E+06 -1.8883E-04  6.7661E-04 -3.1783E-04  
         32   7         7.9179E+05  3.6418E+07 -2.2620E+06 -1.4476E-04  5.1686E-04 -8.4018E-05  
         32   8         2.0040E+06  4.1305E+07 -2.1582E+06 -1.4839E-04  5.8149E-04 -8.0160E-05  
         32   9         2.9125E+06  4.6102E+07 -2.0511E+06 -1.5597E-04  6.4612E-04 -7.6182E-05  
         33   1         2.7377E+07  1.2134E+08  9.0316E+05 -1.2891E-04  1.6160E-03  3.3546E-05  
         33   2         2.5619E+07  1.1875E+08  8.8580E+05 -1.4293E-04  1.5866E-03  3.2901E-05  
         33   3         2.3996E+07  1.1661E+08  8.6695E+05 -1.5695E-04  1.5630E-03  3.2201E-05  
         33   4         2.6318E+07  1.2268E+08  3.5308E+06 -1.4979E-04  1.6398E-03  1.3114E-04  
         33   5         2.4603E+07  1.2003E+08  3.4698E+06 -1.6296E-04  1.6093E-03  1.2888E-04  
         33   6         2.3021E+07  1.1785E+08  3.4154E+06 -1.7621E-04  1.5849E-03  1.2686E-04  
         33   7         2.3071E+07  1.2275E+08  5.9064E+06 -1.9649E-04  1.6547E-03  2.1938E-04  
         33   8         2.1535E+07  1.2018E+08  5.8106E+06 -2.0740E-04  1.6245E-03  2.1582E-04  
         33   9         2.0120E+07  1.1807E+08  5.7283E+06 -2.1860E-04  1.6005E-03  2.1277E-04  
         34   1         2.0666E+07  1.2357E+08  6.9565E+06 -2.3434E-04  1.6767E-03  2.5838E-04  
         34   2         1.9260E+07  1.2102E+08  6.8549E+06 -2.4353E-04  1.6464E-03  2.5461E-04  
         34   3         1.7960E+07  1.1892E+08  6.7648E+06 -2.5309E-04  1.6219E-03  2.5126E-04  
         34   4         1.6077E+07  1.2550E+08  7.4950E+06 -3.0820E-04  1.7240E-03  2.7839E-04  
         34   5         1.4902E+07  1.2296E+08  7.4367E+06 -3.1408E-04  1.6927E-03  2.7622E-04  
         34   6         1.3817E+07  1.2087E+08  7.3881E+06 -3.2064E-04  1.6676E-03  2.7441E-04  
         34   7         9.9538E+06  1.2604E+08  7.4487E+06 -3.9798E-04  1.7579E-03  2.7667E-04  
         34   8         9.1125E+06  1.2362E+08  7.4528E+06 -3.9964E-04  1.7270E-03  2.7682E-04  
         34   9         8.3371E+06  1.2167E+08  7.4626E+06 -4.0233E-04  1.7024E-03  2.7718E-04  
         35   1         6.3878E+06  1.2667E+08  6.7086E+06 -4.5163E-04  1.7822E-03  2.4918E-04  
         35   2         5.7483E+06  1.2434E+08  6.7736E+06 -4.5079E-04  1.7517E-03  2.5159E-04  
         35   3         5.1480E+06  1.2244E+08  6.8451E+06 -4.5118E-04  1.7270E-03  2.5425E-04  
         35   4         7.7390E+05  1.2710E+08  4.1384E+06 -5.3368E-04  1.8125E-03  1.5371E-04  
         35   5         4.3536E+05  1.2491E+08  4.3694E+06 -5.2913E-04  1.7826E-03  1.6229E-04  
         35   6         1.1775E+05  1.2315E+08  4.5910E+06 -5.2612E-04  1.7588E-03  1.7052E-04  
         35   7        -5.3538E+06  1.2609E+08  1.0598E+06 -6.1685E-04  1.8242E-03  3.9363E-05  
         35   8        -5.3447E+06  1.2414E+08  1.4702E+06 -6.0839E-04  1.7964E-03  5.4607E-05  
         35   9        -5.3361E+06  1.2263E+08  1.8535E+06 -6.0178E-04  1.7747E-03  6.8843E-05  
         36   1        -8.2970E+06  1.2519E+08 -1.3543E+06 -6.5508E-04  1.8241E-03 -5.0301E-05  
         36   2        -8.0984E+06  1.2344E+08 -8.2639E+05 -6.4473E-04  1.7982E-03 -3.0694E-05  
         36   3        -7.9354E+06  1.2206E+08 -3.2127E+05 -6.3650E-04  1.7778E-03 -1.1933E-05  
         36   4        -1.2142E+07  1.2212E+08 -6.0282E+06 -6.9682E-04  1.7966E-03 -2.2391E-04  
         36   5        -1.1707E+07  1.2071E+08 -5.2650E+06 -6.8456E-04  1.7745E-03 -1.9556E-04  
         36   6        -1.1316E+07  1.1966E+08 -4.5499E+06 -6.7451E-04  1.7580E-03 -1.6900E-04  
         36   7        -1.5535E+07  1.1789E+08 -1.0736E+07 -7.2717E-04  1.7507E-03 -3.9878E-04  
         36   8        -1.4874E+07  1.1689E+08 -9.7457E+06 -7.1345E-04  1.7336E-03 -3.6198E-04  
         36   9        -1.4264E+07  1.1625E+08 -8.8285E+06 -7.0200E-04  1.7219E-03 -3.2791E-04  
         37   1        -1.6530E+07  1.1474E+08 -1.3576E+07 -7.2786E-04  1.7099E-03 -5.0423E-04  
         37   2        -1.5758E+07  1.1404E+08 -1.2468E+07 -7.1385E-04  1.6967E-03 -4.6309E-04  
         37   3        -1.5077E+07  1.1364E+08 -1.1425E+07 -7.0242E-04  1.6881E-03 -4.2435E-04  
         37   4        -1.7086E+07  1.0768E+08 -1.7837E+07 -7.0558E-04  1.6115E-03 -6.6252E-04  
         37   5        -1.6219E+07  1.0752E+08 -1.6543E+07 -6.9251E-04  1.6055E-03 -6.1444E-04  
         37   6        -1.5438E+07  1.0763E+08 -1.5336E+07 -6.8183E-04  1.6038E-03 -5.6964E-04  
         37   7        -1.6611E+07  1.0027E+08 -2.1520E+07 -6.6704E-04  1.5037E-03 -7.9933E-04  
         37   8        -1.5703E+07  1.0066E+08 -2.0073E+07 -6.5573E-04  1.5053E-03 -7.4557E-04  
         37   9        -1.4870E+07  1.0130E+08 -1.8735E+07 -6.4655E-04  1.5108E-03 -6.9586E-04  
         38   1        -1.5506E+07  9.5335E+07 -2.3108E+07 -6.3009E-04  1.4284E-03 -8.5829E-04  
         38   2        -1.4583E+07  9.6086E+07 -2.1616E+07 -6.2013E-04  1.4352E-03 -8.0287E-04  
         38   3        -1.3772E+07  9.7034E+07 -2.0221E+07 -6.1260E-04  1.4452E-03 -7.5106E-04  
         38   4        -1.3303E+07  8.5997E+07 -2.4370E+07 -5.5860E-04  1.2855E-03 -9.0519E-04  
         38   5        -1.2414E+07  8.7365E+07 -2.2857E+07 -5.5177E-04  1.3013E-03 -8.4898E-04  
         38   6        -1.1619E+07  8.8893E+07 -2.1450E+07 -5.4696E-04  1.3197E-03 -7.9671E-04  
         38   7        -9.9686E+06  7.7469E+07 -2.4664E+07 -4.7442E-04  1.1494E-03 -9.1608E-04  
         38   8        -9.1877E+06  7.9395E+07 -2.3177E+07 -4.7152E-04  1.1736E-03 -8.6088E-04  
         38   9        -8.4776E+06  8.1448E+07 -2.1803E+07 -4.7017E-04  1.1999E-03 -8.0981E-04  
         39   1        -7.8094E+06  7.2376E+07 -2.3876E+07 -4.2174E-04  1.0674E-03 -8.8683E-04  
         39   2        -7.0739E+06  7.4638E+07 -2.2464E+07 -4.2093E-04  1.0966E-03 -8.3436E-04  
         39   3        -6.4374E+06  7.6987E+07 -2.1148E+07 -4.2191E-04  1.1274E-03 -7.8549E-04  
         39   4        -4.9902E+06  6.3982E+07 -2.1014E+07 -3.4550E-04  9.3541E-04 -7.8051E-04  
         39   5        -4.3282E+06  6.6765E+07 -1.9790E+07 -3.4797E-04  9.7233E-04 -7.3505E-04  
         39   6        -3.7481E+06  6.9601E+07 -1.8653E+07 -3.5184E-04  1.0104E-03 -6.9282E-04  
         39   7        -1.2430E+06  5.7571E+07 -1.7258E+07 -2.6449E-04  8.2777E-04 -6.4102E-04  
         39   8        -7.3286E+05  6.0749E+07 -1.6266E+07 -2.7082E-04  8.7099E-04 -6.0416E-04  
         39   9        -2.8209E+05  6.3956E+07 -1.5347E+07 -2.7813E-04  9.1486E-04 -5.7002E-04  
         40   1         4.0052E+05  5.4340E+07 -1.4212E+07 -2.2716E-04  7.7457E-04 -5.2789E-04  
         40   2         8.6561E+05  5.7721E+07 -1.3401E+07 -2.3501E-04  8.2087E-04 -4.9777E-04  
         40   3         1.2559E+06  6.1107E+07 -1.2648E+07 -2.4395E-04  8.6758E-04 -4.6978E-04  
         40   4         1.4678E+06  5.0108E+07 -8.2779E+06 -1.9378E-04  7.0954E-04 -3.0747E-04  
         40   5         1.9190E+06  5.3745E+07 -7.8077E+06 -2.0292E-04  7.5956E-04 -2.9000E-04  
         40   6         2.3013E+06  5.7371E+07 -7.3711E+06 -2.1300E-04  8.0972E-04 -2.7378E-04  
         40   7         3.2512E+06  4.8597E+07 -1.9833E+06 -1.6183E-04  6.8030E-04 -7.3664E-05  
         40   8         3.6122E+06  5.2324E+07 -1.8708E+06 -1.7264E-04  7.3200E-04 -6.9488E-05  
         40   9         3.9149E+06  5.6034E+07 -1.7666E+06 -1.8422E-04  7.8370E-04 -6.5616E-05  
         41   1         2.3072E+07  1.1554E+08  8.4948E+05 -1.6555E-04  1.5516E-03  3.1552E-05  
         41   2         2.1630E+07  1.1393E+08  8.1661E+05 -1.7926E-04  1.5348E-03  3.0331E-05  
         41   3         2.0257E+07  1.1255E+08  7.8734E+05 -1.9297E-04  1.5210E-03  2.9244E-05  
         41   4         2.2133E+07  1.1675E+08  3.3537E+06 -1.8417E-04  1.5730E-03  1.2457E-04  
         41   5         2.0741E+07  1.1508E+08  3.2324E+06 -1.9690E-04  1.5551E-03  1.2006E-04  
         41   6         1.9417E+07  1.1365E+08  3.1230E+06 -2.0971E-04  1.5404E-03  1.1600E-04  
         41   7         1.9324E+07  1.1699E+08  5.6225E+06 -2.2533E-04  1.5885E-03  2.0884E-04  
         41   8         1.8087E+07  1.1535E+08  5.4223E+06 -2.3596E-04  1.5703E-03  2.0140E-04  
         41   9         1.6908E+07  1.1395E+08  5.2414E+06 -2.4681E-04  1.5554E-03  1.9468E-04  
         42   1         1.7233E+07  1.1783E+08  6.6437E+06 -2.5880E-04  1.6094E-03  2.4677E-04  
         42   2         1.6114E+07  1.1618E+08  6.4104E+06 -2.6770E-04  1.5906E-03  2.3810E-04  
         42   3         1.5041E+07  1.1476E+08  6.2015E+06 -2.7696E-04  1.5750E-03  2.3034E-04  
         42   4         1.3230E+07  1.1977E+08  7.2807E+06 -3.2431E-04  1.6543E-03  2.7043E-04  
         42   5         1.2331E+07  1.1806E+08  7.0512E+06 -3.2984E-04  1.6338E-03  2.6190E-04  
         42   6         1.1466E+07  1.1661E+08  6.8466E+06 -3.3596E-04  1.6167E-03  2.5430E-04  
         42   7         7.9329E+06  1.2060E+08  7.3680E+06 -4.0352E-04  1.6888E-03  2.7367E-04  
         42   8         7.3294E+06  1.1892E+08  7.1640E+06 -4.0496E-04  1.6675E-03  2.6609E-04  
         42   9         6.7419E+06  1.1751E+08  6.9833E+06 -4.0729E-04  1.6498E-03  2.5938E-04  
         43   1         4.8475E+06  1.2137E+08  6.7812E+06 -4.5092E-04  1.7131E-03  2.5187E-04  
         43   2         4.4210E+06  1.1971E+08  6.6206E+06 -4.4990E-04  1.6912E-03  2.4591E-04  
         43   3         3.9939E+06  1.1830E+08  6.4837E+06 -4.4996E-04  1.6729E-03  2.4082E-04  
         43   4        -1.1453E+04  1.2215E+08  4.6195E+06 -5.2366E-04  1.7450E-03  1.7158E-04  
         43   5        -1.6416E+05  1.2053E+08  4.5964E+06 -5.1891E-04  1.7226E-03  1.7072E-04  
         43   6        -3.3188E+05  1.1918E+08  4.5859E+06 -5.1549E-04  1.7039E-03  1.7033E-04  
         43   7        -5.2695E+06  1.2171E+08  1.9687E+06 -5.9690E-04  1.7613E-03  7.3124E-05  
         43   8        -5.1192E+06  1.2022E+08  2.1007E+06 -5.8835E-04  1.7393E-03  7.8028E-05  
         43   9        -5.0002E+06  1.1899E+08  2.2324E+06 -5.8138E-04  1.7213E-03  8.2919E-05  
         44   1        -7.7805E+06  1.2121E+08 -1.3384E+05 -6.3061E-04  1.7649E-03 -4.9711E-06  
         44   2        -7.4763E+06  1.1981E+08  1.1068E+05 -6.2027E-04  1.7436E-03  4.1109E-06  
         44   3        -7.2197E+06  1.1866E+08  3.5128E+05 -6.1168E-04  1.7261E-03  1.3047E-05  
         44   4        -1.1036E+07  1.1898E+08 -4.2249E+06 -6.6757E-04  1.7470E-03 -1.5692E-04  
         44   5        -1.0534E+07  1.1780E+08 -3.7584E+06 -6.5534E-04  1.7280E-03 -1.3960E-04  
         44   6        -1.0087E+07  1.1687E+08 -3.3150E+06 -6.4496E-04  1.7128E-03 -1.2313E-04  
         44   7        -1.3855E+07  1.1575E+08 -8.3784E+06 -6.9399E-04  1.7129E-03 -3.1120E-04  
         44   8        -1.3172E+07  1.1484E+08 -7.6923E+06 -6.8036E-04  1.6971E-03 -2.8571E-04  
         44   9        -1.2548E+07  1.1418E+08 -7.0486E+06 -6.6862E-04  1.6850E-03 -2.6180E-04  
         45   1        -1.4632E+07  1.1326E+08 -1.0896E+07 -6.9442E-04  1.6807E-03 -4.0472E-04  
         45   2        -1.3881E+07  1.1256E+08 -1.0086E+07 -6.8069E-04  1.6675E-03 -3.7461E-04  
         45   3        -1.3200E+07  1.1208E+08 -9.3214E+06 -6.6891E-04  1.6577E-03 -3.4622E-04  
         45   4        -1.4955E+07  1.0754E+08 -1.4696E+07 -6.7452E-04  1.6003E-03 -5.4585E-04  
         45   5        -1.4154E+07  1.0724E+08 -1.3695E+07 -6.6180E-04  1.5926E-03 -5.0867E-04  
         45   6        -1.3419E+07  1.0714E+08 -1.2758E+07 -6.5089E-04  1.5881E-03 -4.7388E-04  
         45   7        -1.4365E+07  1.0146E+08 -1.8001E+07 -6.4003E-04  1.5109E-03 -6.6862E-04  
         45   8        -1.3560E+07  1.0158E+08 -1.6837E+07 -6.2905E-04  1.5092E-03 -6.2538E-04  
         45   9        -1.2812E+07  1.0189E+08 -1.5753E+07 -6.1968E-04  1.5104E-03 -5.8513E-04  
         46   1        -1.3289E+07  9.7364E+07 -1.9449E+07 -6.0712E-04  1.4479E-03 -7.2238E-04  
         46   2        -1.2513E+07  9.7766E+07 -1.8224E+07 -5.9775E-04  1.4503E-03 -6.7688E-04  
         46   3        -1.1797E+07  9.8325E+07 -1.7078E+07 -5.8992E-04  1.4552E-03 -6.3433E-04  
         46   4        -1.1173E+07  8.9560E+07 -2.0660E+07 -5.4344E-04  1.3273E-03 -7.6736E-04  
         46   5        -1.0474E+07  9.0457E+07 -1.9393E+07 -5.3730E-04  1.3371E-03 -7.2030E-04  
         46   6        -9.8211E+06  9.1485E+07 -1.8212E+07 -5.3238E-04  1.3490E-03 -6.7645E-04  
         46   7        -8.0956E+06  8.2392E+07 -2.1016E+07 -4.6876E-04  1.2117E-03 -7.8059E-04  
         46   8        -7.5288E+06  8.3746E+07 -1.9749E+07 -4.6647E-04  1.2286E-03 -7.3354E-04  
         46   9        -6.9908E+06  8.5208E+07 -1.8573E+07 -4.6504E-04  1.2472E-03 -6.8986E-04  
         47   1        -6.1087E+06  7.8096E+07 -2.0392E+07 -4.2196E-04  1.1418E-03 -7.5741E-04  
         47   2        -5.6228E+06  7.9723E+07 -1.9177E+07 -4.2200E-04  1.1630E-03 -7.1230E-04  
         47   3        -5.1650E+06  8.1432E+07 -1.8045E+07 -4.2278E-04  1.1854E-03 -6.7022E-04  
         47   4        -3.4743E+06  7.0998E+07 -1.7999E+07 -3.5391E-04  1.0292E-03 -6.6852E-04  
         47   5        -3.0980E+06  7.3055E+07 -1.6938E+07 -3.5735E-04  1.0569E-03 -6.2912E-04  
         47   6        -2.7354E+06  7.5168E+07 -1.5951E+07 -3.6123E-04  1.0856E-03 -5.9248E-04  
         47   7        -9.8092E+04  6.5552E+07 -1.4811E+07 -2.8234E-04  9.3687E-04 -5.5012E-04  
         47   8         1.1722E+05  6.7945E+07 -1.3942E+07 -2.8952E-04  9.7015E-04 -5.1785E-04  
         47   9         3.3645E+05  7.0378E+07 -1.3138E+07 -2.9681E-04  1.0040E-03 -4.8797E-04  
         48   1         1.3980E+06  6.2806E+07 -1.2208E+07 -2.4920E-04  8.9124E-04 -4.5343E-04  
         48   2         1.5482E+06  6.5369E+07 -1.1497E+07 -2.5804E-04  9.2720E-04 -4.2704E-04  
         48   3         1.7040E+06  6.7955E+07 -1.0834E+07 -2.6689E-04  9.6348E-04 -4.0241E-04  
         48   4         2.4293E+06  5.9216E+07 -7.1173E+06 -2.1908E-04  8.3553E-04 -2.6436E-04  
         48   5         2.5421E+06  6.1988E+07 -6.7041E+06 -2.2935E-04  8.7465E-04 -2.4901E-04  
         48   6         2.6660E+06  6.4771E+07 -6.3201E+06 -2.3951E-04  9.1388E-04 -2.3475E-04  
         48   7         3.9914E+06  5.7918E+07 -1.7056E+06 -1.9120E-04  8.1030E-04 -6.3351E-05  
         48   8         4.0218E+06  6.0775E+07 -1.6051E+06 -2.0301E-04  8.5098E-04 -5.9617E-05  
         48   9         4.0710E+06  6.3638E+07 -1.5144E+06 -2.1458E-04  8.9167E-04 -5.6249E-05  
         49   1         1.9514E+07  1.1185E+08  7.6738E+05 -2.0058E-04  1.5142E-03  2.8503E-05  
         49   2         1.8347E+07  1.1079E+08  7.3249E+05 -2.1270E-04  1.5040E-03  2.7207E-05  
         49   3         1.7218E+07  1.0985E+08  7.0223E+05 -2.2483E-04  1.4955E-03  2.6083E-05  
         49   4         1.8694E+07  1.1292E+08  3.0476E+06 -2.1689E-04  1.5331E-03  1.1320E-04  
         49   5         1.7575E+07  1.1181E+08  2.9165E+06 -2.2810E-04  1.5219E-03  1.0833E-04  
         49   6         1.6493E+07  1.1083E+08  2.7972E+06 -2.3936E-04  1.5125E-03  1.0390E-04  
         49   7         1.6275E+07  1.1323E+08  5.1156E+06 -2.5276E-04  1.5478E-03  1.9001E-04  
         49   8         1.5284E+07  1.1211E+08  4.8972E+06 -2.6214E-04  1.5361E-03  1.8190E-04  
         49   9         1.4323E+07  1.1114E+08  4.6969E+06 -2.7170E-04  1.5263E-03  1.7445E-04  
         50   1         1.4470E+07  1.1402E+08  6.0543E+06 -2.8196E-04  1.5669E-03  2.2487E-04  
         50   2         1.3579E+07  1.1288E+08  5.7965E+06 -2.8980E-04  1.5544E-03  2.1530E-04  
         50   3         1.2710E+07  1.1189E+08  5.5634E+06 -2.9794E-04  1.5439E-03  2.0664E-04  
         50   4         1.1006E+07  1.1584E+08  6.6949E+06 -3.3921E-04  1.6076E-03  2.4867E-04  
         50   5         1.0308E+07  1.1463E+08  6.4253E+06 -3.4402E-04  1.5934E-03  2.3865E-04  
         50   6         9.6211E+06  1.1358E+08  6.1813E+06 -3.4931E-04  1.5813E-03  2.2959E-04  
         50   7         6.4445E+06  1.1674E+08  6.8383E+06 -4.0824E-04  1.6401E-03  2.5399E-04  
         50   8         5.9958E+06  1.1553E+08  6.5771E+06 -4.0946E-04  1.6247E-03  2.4429E-04  
         50   9         5.5450E+06  1.1447E+08  6.3410E+06 -4.1138E-04  1.6115E-03  2.3552E-04  
         51   1         3.7884E+06  1.1753E+08  6.3610E+06 -4.4958E-04  1.6628E-03  2.3627E-04  
         51   2         3.4878E+06  1.1630E+08  6.1321E+06 -4.4862E-04  1.6465E-03  2.2776E-04  
         51   3         3.1744E+06  1.1524E+08  5.9286E+06 -4.4853E-04  1.6326E-03  2.2020E-04  
         51   4        -3.9592E+05  1.1841E+08  4.5334E+06 -5.1314E-04  1.6933E-03  1.6839E-04  
         51   5        -4.6240E+05  1.1719E+08  4.4161E+06 -5.0884E-04  1.6761E-03  1.6403E-04  
         51   6        -5.5277E+05  1.1613E+08  4.3163E+06 -5.0561E-04  1.6614E-03  1.6032E-04  
         51   7        -4.9008E+06  1.1827E+08  2.2580E+06 -5.7690E-04  1.7106E-03  8.3867E-05  
         51   8        -4.7138E+06  1.1711E+08  2.2695E+06 -5.6925E-04  1.6932E-03  8.4296E-05  
         51   9        -4.5627E+06  1.1612E+08  2.2892E+06 -5.6285E-04  1.6784E-03  8.5026E-05  
         52   1        -7.0432E+06  1.1798E+08  4.3949E+05 -6.0625E-04  1.7156E-03  1.6324E-05  
         52   2        -6.7326E+06  1.1687E+08  5.4959E+05 -5.9704E-04  1.6984E-03  2.0413E-05  
         52   3        -6.4660E+06  1.1593E+08  6.6224E+05 -5.8921E-04  1.6838E-03  2.4598E-05  
         52   4        -9.8080E+06  1.1630E+08 -3.1079E+06 -6.3853E-04  1.7034E-03 -1.1544E-04  
         52   5        -9.3357E+06  1.1533E+08 -2.8051E+06 -6.2765E-04  1.6876E-03 -1.0419E-04  
         52   6        -8.9125E+06  1.1454E+08 -2.5140E+06 -6.1821E-04  1.6745E-03 -9.3379E-05  
         52   7        -1.2174E+07  1.1374E+08 -6.7269E+06 -6.6137E-04  1.6770E-03 -2.4986E-04  
         52   8        -1.1556E+07  1.1297E+08 -6.2314E+06 -6.4925E-04  1.6634E-03 -2.3145E-04  
         52   9        -1.0991E+07  1.1237E+08 -5.7621E+06 -6.3861E-04  1.6524E-03 -2.1402E-04  
         53   1        -1.2798E+07  1.1173E+08 -8.9283E+06 -6.6165E-04  1.6509E-03 -3.3162E-04  
         53   2        -1.2135E+07  1.1110E+08 -8.3192E+06 -6.4951E-04  1.6392E-03 -3.0900E-04  
         53   3        -1.1527E+07  1.1064E+08 -7.7432E+06 -6.3883E-04  1.6299E-03 -2.8760E-04  
         53   4        -1.2992E+07  1.0700E+08 -1.2260E+07 -6.4418E-04  1.5843E-03 -4.5537E-04  
         53   5        -1.2303E+07  1.0669E+08 -1.1480E+07 -6.3298E-04  1.5768E-03 -4.2639E-04  
         53   6        -1.1662E+07  1.0652E+08 -1.0746E+07 -6.2312E-04  1.5717E-03 -3.9914E-04  
         53   7        -1.2388E+07  1.0194E+08 -1.5169E+07 -6.1387E-04  1.5094E-03 -5.6342E-04  
         53   8        -1.1709E+07  1.0195E+08 -1.4240E+07 -6.0422E-04  1.5067E-03 -5.2890E-04  
         53   9        -1.1072E+07  1.0210E+08 -1.3369E+07 -5.9575E-04  1.5060E-03 -4.9656E-04  
         54   1        -1.1398E+07  9.8517E+07 -1.6455E+07 -5.8504E-04  1.4562E-03 -6.1120E-04  
         54   2        -1.0760E+07  9.8743E+07 -1.5465E+07 -5.7690E-04  1.4567E-03 -5.7443E-04  
         54   3        -1.0158E+07  9.9090E+07 -1.4537E+07 -5.6979E-04  1.4591E-03 -5.3994E-04  
         54   4        -9.4637E+06  9.1944E+07 -1.7562E+07 -5.2924E-04  1.3540E-03 -6.5229E-04  
         54   5        -8.9110E+06  9.2566E+07 -1.6526E+07 -5.2401E-04  1.3606E-03 -6.1383E-04  
         54   6        -8.3834E+06  9.3289E+07 -1.5558E+07 -5.1958E-04  1.3686E-03 -5.7786E-04  
         54   7        -6.7110E+06  8.5885E+07 -1.7923E+07 -4.6395E-04  1.2557E-03 -6.6569E-04  
         54   8        -6.2858E+06  8.6876E+07 -1.6877E+07 -4.6212E-04  1.2680E-03 -6.2687E-04  
         54   9        -5.8718E+06  8.7952E+07 -1.5902E+07 -4.6082E-04  1.2816E-03 -5.9065E-04  
         55   1        -4.9365E+06  8.2246E+07 -1.7417E+07 -4.2300E-04  1.1961E-03 -6.4690E-04  
         55   2        -4.5966E+06  8.3456E+07 -1.6409E+07 -4.2333E-04  1.2119E-03 -6.0949E-04  
         55   3        -4.2583E+06  8.4734E+07 -1.5466E+07 -4.2398E-04  1.2287E-03 -5.7447E-04  
         55   4        -2.5645E+06  7.6222E+07 -1.5400E+07 -3.6330E-04  1.0999E-03 -5.7200E-04  
         55   5        -2.3358E+06  7.7780E+07 -1.4517E+07 -3.6671E-04  1.1212E-03 -5.3920E-04  
         55   6        -2.0975E+06  7.9388E+07 -1.3692E+07 -3.7020E-04  1.1431E-03 -5.0858E-04  
         55   7         4.1451E+05  7.1586E+07 -1.2688E+07 -3.0088E-04  1.0209E-03 -4.7125E-04  
         55   8         4.9627E+05  7.3424E+07 -1.1961E+07 -3.0758E-04  1.0468E-03 -4.4427E-04  
         55   9         6.0107E+05  7.5297E+07 -1.1286E+07 -3.1411E-04  1.0731E-03 -4.1918E-04  
         56   1         1.7424E+06  6.9249E+07 -1.0464E+07 -2.7189E-04  9.8181E-04 -3.8867E-04  
         56   2         1.7587E+06  7.1224E+07 -9.8691E+06 -2.8012E-04  1.0100E-03 -3.6657E-04  
         56   3         1.8048E+06  7.3225E+07 -9.3109E+06 -2.8804E-04  1.0383E-03 -3.4583E-04  
         56   4         2.6876E+06  6.6195E+07 -6.1044E+06 -2.4530E-04  9.3412E-04 -2.2674E-04  
         56   5         2.6617E+06  6.8339E+07 -5.7579E+06 -2.5486E-04  9.6486E-04 -2.1387E-04  
         56   6         2.6701E+06  7.0499E+07 -5.4347E+06 -2.6400E-04  9.9569E-04 -2.0186E-04  
         56   7         4.0432E+06  6.5084E+07 -1.4626E+06 -2.2117E-04  9.1245E-04 -5.4326E-05  
         56   8         3.9468E+06  6.7302E+07 -1.3779E+06 -2.3205E-04  9.4454E-04 -5.1179E-05  
         56   9         3.8904E+06  6.9532E+07 -1.3020E+06 -2.4242E-04  9.7664E-04 -4.8359E-05  
         57   1         1.6620E+07  1.0937E+08  6.8317E+05 -2.3131E-04  1.4913E-03  2.5375E-05  
         57   2         1.5675E+07  1.0864E+08  6.5076E+05 -2.4166E-04  1.4848E-03  2.4171E-05  
         57   3         1.4752E+07  1.0798E+08  6.2271E+05 -2.5201E-04  1.4793E-03  2.3129E-05  
         57   4         1.5907E+07  1.1032E+08  2.7235E+06 -2.4554E-04  1.5078E-03  1.0116E-04  
         57   5         1.5004E+07  1.0953E+08  2.6005E+06 -2.5508E-04  1.5005E-03  9.6589E-05  
         57   6         1.4122E+07  1.0883E+08  2.4876E+06 -2.6467E-04  1.4942E-03  9.2395E-05  
         57   7         1.3817E+07  1.1063E+08  4.5749E+06 -2.7676E-04  1.5213E-03  1.6993E-04  
         57   8         1.3021E+07  1.0985E+08  4.3690E+06 -2.8476E-04  1.5134E-03  1.6228E-04  
         57   9         1.2239E+07  1.0914E+08  4.1784E+06 -2.9290E-04  1.5067E-03  1.5520E-04  
         58   1         1.2256E+07  1.1136E+08  5.4196E+06 -3.0218E-04  1.5384E-03  2.0130E-04  
         58   2         1.1543E+07  1.1054E+08  5.1755E+06 -3.0887E-04  1.5297E-03  1.9223E-04  
         58   3         1.0839E+07  1.0981E+08  4.9528E+06 -3.1579E-04  1.5223E-03  1.8396E-04  
         58   4         9.2572E+06  1.1301E+08  6.0262E+06 -3.5208E-04  1.5748E-03  2.2383E-04  
         58   5         8.7069E+06  1.1213E+08  5.7648E+06 -3.5615E-04  1.5645E-03  2.1412E-04  
         58   6         8.1586E+06  1.1134E+08  5.5258E+06 -3.6060E-04  1.5555E-03  2.0525E-04  
         58   7         5.3196E+06  1.1390E+08  6.1894E+06 -4.1215E-04  1.6044E-03  2.2989E-04  
         58   8         4.9764E+06  1.1299E+08  5.9285E+06 -4.1317E-04  1.5929E-03  2.2020E-04  
         58   9         4.6250E+06  1.1219E+08  5.6900E+06 -4.1473E-04  1.5829E-03  2.1134E-04  
         59   1         3.0271E+06  1.1465E+08  5.7938E+06 -4.4813E-04  1.6250E-03  2.1520E-04  
         59   2         2.8064E+06  1.1372E+08  5.5574E+06 -4.4729E-04  1.6126E-03  2.0642E-04  
         59   3         2.5702E+06  1.1290E+08  5.3437E+06 -4.4713E-04  1.6018E-03  1.9848E-04  
         59   4        -5.8449E+05  1.1554E+08  4.2359E+06 -5.0353E-04  1.6531E-03  1.5733E-04  
         59   5        -6.0930E+05  1.1460E+08  4.0900E+06 -4.9983E-04  1.6397E-03  1.5192E-04  
         59   6        -6.5792E+05  1.1376E+08  3.9611E+06 -4.9695E-04  1.6280E-03  1.4713E-04  
         59   7        -4.4596E+06  1.1556E+08  2.2754E+06 -5.5896E-04  1.6700E-03  8.4515E-05  
         59   8        -4.2750E+06  1.1464E+08  2.2357E+06 -5.5240E-04  1.6561E-03  8.3038E-05  
         59   9        -4.1232E+06  1.1385E+08  2.2058E+06 -5.4681E-04  1.6440E-03  8.1931E-05  
         60   1        -6.2980E+06  1.1539E+08  7.0138E+05 -5.8449E-04  1.6754E-03  2.6051E-05  
         60   2        -6.0136E+06  1.1450E+08  7.4497E+05 -5.7662E-04  1.6615E-03  2.7670E-05  
         60   3        -5.7660E+06  1.1373E+08  7.9302E+05 -5.6979E-04  1.6495E-03  2.9455E-05  
         60   4        -8.6619E+06  1.1407E+08 -2.3752E+06 -6.1261E-04  1.6667E-03 -8.8223E-05  
         60   5        -8.2459E+06  1.1329E+08 -2.1689E+06 -6.0331E-04  1.6537E-03 -8.0560E-05  
         60   6        -7.8704E+06  1.1262E+08 -1.9688E+06 -5.9511E-04  1.6427E-03 -7.3127E-05  
         60   7        -1.0668E+07  1.1199E+08 -5.5242E+06 -6.3238E-04  1.6456E-03 -2.0518E-04  
         60   8        -1.0135E+07  1.1135E+08 -5.1541E+06 -6.2202E-04  1.6342E-03 -1.9144E-04  
         60   9        -9.6456E+06  1.1083E+08 -4.8011E+06 -6.1280E-04  1.6247E-03 -1.7833E-04  
         61   1        -1.1181E+07  1.1033E+08 -7.4434E+06 -6.3257E-04  1.6241E-03 -2.7647E-04  
         61   2        -1.0617E+07  1.0980E+08 -6.9750E+06 -6.2223E-04  1.6140E-03 -2.5907E-04  
         61   3        -1.0093E+07  1.0938E+08 -6.5308E+06 -6.1296E-04  1.6058E-03 -2.4257E-04  
         61   4        -1.1300E+07  1.0637E+08 -1.0354E+07 -6.1731E-04  1.5680E-03 -3.8459E-04  
         61   5        -1.0721E+07  1.0608E+08 -9.7387E+06 -6.0777E-04  1.5614E-03 -3.6172E-04  
         61   6        -1.0178E+07  1.0590E+08 -9.1573E+06 -5.9924E-04  1.5564E-03 -3.4013E-04  
         61   7        -1.0722E+07  1.0211E+08 -1.2902E+07 -5.9078E-04  1.5046E-03 -4.7922E-04  
         61   8        -1.0158E+07  1.0207E+08 -1.2157E+07 -5.8257E-04  1.5017E-03 -4.5153E-04  
         61   9        -9.6262E+06  1.0214E+08 -1.1455E+07 -5.7524E-04  1.5003E-03 -4.2546E-04  
         62   1        -9.8312E+06  9.9207E+07 -1.4035E+07 -5.6562E-04  1.4594E-03 -5.2132E-04  
         62   2        -9.3096E+06  9.9340E+07 -1.3235E+07 -5.5874E-04  1.4590E-03 -4.9160E-04  
         62   3        -8.8106E+06  9.9564E+07 -1.2482E+07 -5.5257E-04  1.4601E-03 -4.6363E-04  
         62   4        -8.0967E+06  9.3619E+07 -1.5027E+07 -5.1689E-04  1.3721E-03 -5.5816E-04  
         62   5        -7.6559E+06  9.4069E+07 -1.4185E+07 -5.1252E-04  1.3767E-03 -5.2686E-04  
         62   6        -7.2291E+06  9.4597E+07 -1.3393E+07 -5.0869E-04  1.3824E-03 -4.9746E-04  
         62   7        -5.6601E+06  8.8455E+07 -1.5370E+07 -4.5995E-04  1.2879E-03 -5.7089E-04  
         62   8        -5.3329E+06  8.9204E+07 -1.4514E+07 -4.5849E-04  1.2972E-03 -5.3910E-04  
         62   9        -5.0093E+06  9.0018E+07 -1.3712E+07 -4.5735E-04  1.3074E-03 -5.0931E-04  
         63   1        -4.0926E+06  8.5349E+07 -1.4952E+07 -4.2425E-04  1.2368E-03 -5.5534E-04  
         63   2        -3.8439E+06  8.6274E+07 -1.4124E+07 -4.2466E-04  1.2490E-03 -5.2462E-04  
         63   3        -3.5874E+06  8.7252E+07 -1.3347E+07 -4.2519E-04  1.2618E-03 -4.9574E-04  
         63   4        -1.9848E+06  8.0199E+07 -1.3237E+07 -3.7207E-04  1.1542E-03 -4.9165E-04  
         63   5        -1.8380E+06  8.1407E+07 -1.2510E+07 -3.7514E-04  1.1708E-03 -4.6464E-04  
         63   6        -1.6746E+06  8.2654E+07 -1.1828E+07 -3.7815E-04  1.1879E-03 -4.3933E-04  
         63   7         6.2899E+05  7.6231E+07 -1.0914E+07 -3.1772E-04  1.0863E-03 -4.0538E-04  
         63   8         6.4827E+05  7.7667E+07 -1.0314E+07 -3.2360E-04  1.1067E-03 -3.8309E-04  
         63   9         6.9418E+05  7.9133E+07 -9.7540E+06 -3.2922E-04  1.1275E-03 -3.6229E-04  
         64   1         1.7976E+06  7.4229E+07 -9.0053E+06 -2.9244E-04  1.0527E-03 -3.3448E-04  
         64   2         1.7578E+06  7.5777E+07 -8.5134E+06 -2.9965E-04  1.0750E-03 -3.1621E-04  
         64   3         1.7523E+06  7.7348E+07 -8.0498E+06 -3.0646E-04  1.0975E-03 -2.9899E-04  
         64   4         2.6467E+06  7.1613E+07 -5.2555E+06 -2.6910E-04  1.0117E-03 -1.9520E-04  
         64   5         2.5664E+06  7.3298E+07 -4.9689E+06 -2.7747E-04  1.0361E-03 -1.8456E-04  
         64   6         2.5240E+06  7.4998E+07 -4.7005E+06 -2.8536E-04  1.0606E-03 -1.7459E-04  
         64   7         3.8233E+06  7.0660E+07 -1.2590E+06 -2.4821E-04  9.9304E-04 -4.6762E-05  
         64   8         3.6840E+06  7.2406E+07 -1.1888E+06 -2.5768E-04  1.0186E-03 -4.4156E-05  
         64   9         3.5868E+06  7.4165E+07 -1.1259E+06 -2.6661E-04  1.0441E-03 -4.1819E-05  
         65   1         1.4268E+07  1.0763E+08  6.0562E+05 -2.5746E-04  1.4765E-03  2.2494E-05  
         65   2         1.3497E+07  1.0710E+08  5.7697E+05 -2.6619E-04  1.4722E-03  2.1430E-05  
         65   3         1.2741E+07  1.0662E+08  5.5208E+05 -2.7492E-04  1.4685E-03  2.0506E-05  
         65   4         1.3645E+07  1.0846E+08  2.4207E+06 -2.6990E-04  1.4910E-03  8.9912E-05  
         65   5         1.2912E+07  1.0789E+08  2.3112E+06 -2.7793E-04  1.4860E-03  8.5843E-05  
         65   6         1.2191E+07  1.0737E+08  2.2099E+06 -2.8600E-04  1.4816E-03  8.2082E-05  
         65   7         1.1831E+07  1.0877E+08  4.0684E+06 -2.9714E-04  1.5032E-03  1.5111E-04  
         65   8         1.1185E+07  1.0819E+08  3.8845E+06 -3.0389E-04  1.4977E-03  1.4428E-04  
         65   9         1.0547E+07  1.0766E+08  3.7131E+06 -3.1074E-04  1.4928E-03  1.3791E-04  
         66   1         1.0475E+07  1.0943E+08  4.8226E+06 -3.1934E-04  1.5184E-03  1.7912E-04  
         66   2         9.8976E+06  1.0882E+08  4.6041E+06 -3.2498E-04  1.5121E-03  1.7101E-04  
         66   3         9.3243E+06  1.0827E+08  4.4034E+06 -3.3080E-04  1.5067E-03  1.6355E-04  
         66   4         7.8672E+06  1.1091E+08  5.3821E+06 -3.6294E-04  1.5507E-03  1.9991E-04  
         66   5         7.4271E+06  1.1024E+08  5.1452E+06 -3.6636E-04  1.5430E-03  1.9111E-04  
         66   6         6.9851E+06  1.0963E+08  4.9271E+06 -3.7007E-04  1.5362E-03  1.8301E-04  
         66   7         4.4501E+06  1.1175E+08  5.5480E+06 -4.1536E-04  1.5774E-03  2.0607E-04  
         66   8         4.1814E+06  1.1105E+08  5.3080E+06 -4.1621E-04  1.5686E-03  1.9715E-04  
         66   9         3.9033E+06  1.1042E+08  5.0868E+06 -4.1748E-04  1.5608E-03  1.8894E-04  
         67   1         2.4608E+06  1.1245E+08  5.2147E+06 -4.4677E-04  1.5959E-03  1.9369E-04  
         67   2         2.2933E+06  1.1172E+08  4.9939E+06 -4.4605E-04  1.5862E-03  1.8549E-04  
         67   3         2.1113E+06  1.1107E+08  4.7920E+06 -4.4587E-04  1.5777E-03  1.7799E-04  
         67   4        -6.7277E+05  1.1330E+08  3.8749E+06 -4.9517E-04  1.6214E-03  1.4393E-04  
         67   5        -6.7705E+05  1.1255E+08  3.7279E+06 -4.9203E-04  1.6108E-03  1.3846E-04  
         67   6        -7.0236E+05  1.1188E+08  3.5955E+06 -4.8953E-04  1.6013E-03  1.3355E-04  
         67   7        -4.0271E+06  1.1340E+08  2.1758E+06 -5.4352E-04  1.6372E-03  8.0816E-05  
         67   8        -3.8585E+06  1.1266E+08  2.1161E+06 -5.3797E-04  1.6260E-03  7.8598E-05  
         67   9        -3.7178E+06  1.1202E+08  2.0659E+06 -5.3318E-04  1.6162E-03  7.6733E-05  
         68   1        -5.6158E+06  1.1330E+08  8.0718E+05 -5.6578E-04  1.6426E-03  2.9981E-05  
         68   2        -5.3659E+06  1.1258E+08  8.1724E+05 -5.5914E-04  1.6313E-03  3.0355E-05  
         68   3        -5.1459E+06  1.1195E+08  8.3199E+05 -5.5330E-04  1.6214E-03  3.0903E-05  
         68   4        -7.6530E+06  1.1224E+08 -1.8718E+06 -5.9035E-04  1.6362E-03 -6.9523E-05  
         68   5        -7.2956E+06  1.1160E+08 -1.7255E+06 -5.8250E-04  1.6255E-03 -6.4089E-05  
         68   6        -6.9708E+06  1.1105E+08 -1.5825E+06 -5.7550E-04  1.6163E-03 -5.8780E-05  
         68   7        -9.3714E+06  1.1052E+08 -4.6200E+06 -6.0752E-04  1.6190E-03 -1.7160E-04  
         68   8        -8.9192E+06  1.0999E+08 -4.3361E+06 -5.9879E-04  1.6095E-03 -1.6105E-04  
         68   9        -8.5018E+06  1.0954E+08 -4.0637E+06 -5.9092E-04  1.6013E-03 -1.5094E-04  
         69   1        -9.8009E+06  1.0912E+08 -6.2972E+06 -6.0767E-04  1.6009E-03 -2.3390E-04  
         69   2        -9.3259E+06  1.0867E+08 -5.9298E+06 -5.9895E-04  1.5924E-03 -2.2025E-04  
         69   3        -8.8817E+06  1.0831E+08 -5.5804E+06 -5.9105E-04  1.5853E-03 -2.0727E-04  
         69   4        -9.8743E+06  1.0576E+08 -8.8453E+06 -5.9431E-04  1.5531E-03 -3.2854E-04  
         69   5        -9.3904E+06  1.0550E+08 -8.3529E+06 -5.8628E-04  1.5474E-03 -3.1025E-04  
         69   6        -8.9348E+06  1.0532E+08 -7.8863E+06 -5.7901E-04  1.5429E-03 -2.9292E-04  
         69   7        -9.3378E+06  1.0212E+08 -1.1079E+07 -5.7106E-04  1.4989E-03 -4.1150E-04  
         69   8        -8.8706E+06  1.0207E+08 -1.0476E+07 -5.6415E-04  1.4961E-03 -3.8910E-04  
         69   9        -8.4276E+06  1.0209E+08 -9.9057E+06 -5.5791E-04  1.4945E-03 -3.6793E-04  
         70   1        -8.5426E+06  9.9639E+07 -1.2076E+07 -5.4906E-04  1.4600E-03 -4.4855E-04  
         70   2        -8.1145E+06  9.9720E+07 -1.1426E+07 -5.4329E-04  1.4593E-03 -4.2440E-04  
         70   3        -7.7013E+06  9.9870E+07 -1.0812E+07 -5.3803E-04  1.4597E-03 -4.0158E-04  
         70   4        -6.9973E+06  9.4843E+07 -1.2960E+07 -5.0643E-04  1.3849E-03 -4.8138E-04  
         70   5        -6.6417E+06  9.5180E+07 -1.2272E+07 -5.0280E-04  1.3882E-03 -4.5581E-04  
         70   6        -6.2943E+06  9.5577E+07 -1.1622E+07 -4.9953E-04  1.3924E-03 -4.3169E-04  
         70   7        -4.8452E+06  9.0403E+07 -1.3277E+07 -4.5666E-04  1.3122E-03 -4.9314E-04  
         70   8        -4.5880E+06  9.0983E+07 -1.2575E+07 -4.5547E-04  1.3194E-03 -4.6706E-04  
         70   9        -4.3310E+06  9.1614E+07 -1.1914E+07 -4.5450E-04  1.3273E-03 -4.4251E-04  
         71   1        -3.4630E+06  8.7729E+07 -1.2925E+07 -4.2545E-04  1.2681E-03 -4.8006E-04  
         71   2        -3.2747E+06  8.8452E+07 -1.2245E+07 -4.2586E-04  1.2776E-03 -4.5480E-04  
         71   3        -3.0759E+06  8.9217E+07 -1.1603E+07 -4.2630E-04  1.2877E-03 -4.3097E-04  
         71   4        -1.5967E+06  8.3291E+07 -1.1453E+07 -3.7977E-04  1.1967E-03 -4.2538E-04  
         71   5        -1.4979E+06  8.4244E+07 -1.0854E+07 -3.8244E-04  1.2099E-03 -4.0314E-04  
         71   6        -1.3819E+06  8.5229E+07 -1.0290E+07 -3.8501E-04  1.2235E-03 -3.8221E-04  
         71   7         6.9791E+05  7.9867E+07 -9.4480E+06 -3.3232E-04  1.1380E-03 -3.5093E-04  
         71   8         6.8806E+05  8.1009E+07 -8.9532E+06 -3.3735E-04  1.1543E-03 -3.3255E-04  
         71   9         7.0314E+05  8.2174E+07 -8.4893E+06 -3.4213E-04  1.1709E-03 -3.1532E-04  
         72   1         1.7258E+06  7.8141E+07 -7.7982E+06 -3.1023E-04  1.1089E-03 -2.8965E-04  
         72   2         1.6645E+06  7.9373E+07 -7.3921E+06 -3.1639E-04  1.1268E-03 -2.7456E-04  
         72   3         1.6354E+06  8.0624E+07 -7.0077E+06 -3.2217E-04  1.1448E-03 -2.6029E-04  
         72   4         2.4829E+06  7.5883E+07 -4.5523E+06 -2.8974E-04  1.0734E-03 -1.6909E-04  
         72   5         2.3853E+06  7.7227E+07 -4.3157E+06 -2.9690E-04  1.0930E-03 -1.6030E-04  
         72   6         2.3225E+06  7.8584E+07 -4.0932E+06 -3.0361E-04  1.1127E-03 -1.5203E-04  
         72   7         3.5082E+06  7.5059E+07 -1.0903E+06 -2.7156E-04  1.0572E-03 -4.0498E-05  
         72   8         3.3614E+06  7.6454E+07 -1.0324E+06 -2.7964E-04  1.0778E-03 -3.8346E-05  
         72   9         3.2526E+06  7.7861E+07 -9.8027E+05 -2.8722E-04  1.0984E-03 -3.6410E-05  
         73   1         1.2345E+07  1.0636E+08  5.3714E+05 -2.7948E-04  1.4666E-03  1.9951E-05  
         73   2         1.1712E+07  1.0597E+08  5.1232E+05 -2.8683E-04  1.4636E-03  1.9029E-05  
         73   3         1.1088E+07  1.0560E+08  4.9063E+05 -2.9418E-04  1.4611E-03  1.8224E-05  
         73   4         1.1800E+07  1.0709E+08  2.1511E+06 -2.9040E-04  1.4793E-03  7.9899E-05  
         73   5         1.1198E+07  1.0666E+08  2.0557E+06 -2.9716E-04  1.4758E-03  7.6353E-05  
         73   6         1.0604E+07  1.0627E+08  1.9669E+06 -3.0394E-04  1.4727E-03  7.3056E-05  
         73   7         1.0215E+07  1.0739E+08  3.6166E+06 -3.1430E-04  1.4903E-03  1.3433E-04  
         73   8         9.6855E+06  1.0695E+08  3.4561E+06 -3.1998E-04  1.4863E-03  1.2837E-04  
         73   9         9.1607E+06  1.0654E+08  3.3055E+06 -3.2574E-04  1.4828E-03  1.2278E-04  
         74   1         9.0293E+06  1.0798E+08  4.2889E+06 -3.3376E-04  1.5038E-03  1.5930E-04  
         74   2         8.5574E+06  1.0751E+08  4.0980E+06 -3.3851E-04  1.4992E-03  1.5221E-04  
         74   3         8.0867E+06  1.0708E+08  3.9215E+06 -3.4340E-04  1.4951E-03  1.4565E-04  
         74   4         6.7490E+06  1.0930E+08  4.7991E+06 -3.7203E-04  1.5326E-03  1.7825E-04  
         74   5         6.3922E+06  1.0878E+08  4.5905E+06 -3.7490E-04  1.5267E-03  1.7050E-04  
         74   6         6.0321E+06  1.0831E+08  4.3971E+06 -3.7800E-04  1.5214E-03  1.6332E-04  
         74   7         3.7647E+06  1.1008E+08  4.9596E+06 -4.1800E-04  1.5565E-03  1.8421E-04  
         74   8         3.5504E+06  1.0954E+08  4.7464E+06 -4.1872E-04  1.5496E-03  1.7629E-04  
         74   9         3.3270E+06  1.0903E+08  4.5485E+06 -4.1976E-04  1.5434E-03  1.6894E-04  
         75   1         2.0276E+06  1.1072E+08  4.6751E+06 -4.4555E-04  1.5730E-03  1.7365E-04  
         75   2         1.8973E+06  1.1014E+08  4.4771E+06 -4.4495E-04  1.5654E-03  1.6629E-04  
         75   3         1.7542E+06  1.0962E+08  4.2946E+06 -4.4476E-04  1.5585E-03  1.5951E-04  
         75   4        -7.0820E+05  1.1151E+08  3.5129E+06 -4.8802E-04  1.5961E-03  1.3048E-04  
         75   5        -7.0242E+05  1.1091E+08  3.3755E+06 -4.8537E-04  1.5875E-03  1.2538E-04  
         75   6        -7.1439E+05  1.1037E+08  3.2504E+06 -4.8323E-04  1.5798E-03  1.2073E-04  
         75   7        -3.6319E+06  1.1165E+08  2.0303E+06 -5.3040E-04  1.6106E-03  7.5412E-05  
         75   8        -3.4828E+06  1.1106E+08  1.9652E+06 -5.2573E-04  1.6015E-03  7.2993E-05  
         75   9        -3.3566E+06  1.1053E+08  1.9084E+06 -5.2164E-04  1.5934E-03  7.0884E-05  
         76   1        -5.0150E+06  1.1160E+08  8.3330E+05 -5.4992E-04  1.6157E-03  3.0951E-05  
         76   2        -4.7991E+06  1.1101E+08  8.2653E+05 -5.4433E-04  1.6065E-03  3.0700E-05  
         76   3        -4.6071E+06  1.1049E+08  8.2406E+05 -5.3936E-04  1.5982E-03  3.0608E-05  
         76   4        -6.7847E+06  1.1073E+08 -1.5123E+06 -5.7147E-04  1.6109E-03 -5.6170E-05  
         76   5        -6.4802E+06  1.1020E+08 -1.4050E+06 -5.6487E-04  1.6021E-03 -5.2186E-05  
         76   6        -6.2018E+06  1.0974E+08 -1.2996E+06 -5.5892E-04  1.5943E-03 -4.8271E-05  
         76   7        -8.2705E+06  1.0928E+08 -3.9227E+06 -5.8648E-04  1.5966E-03 -1.4570E-04  
         76   8        -7.8886E+06  1.0884E+08 -3.6999E+06 -5.7913E-04  1.5886E-03 -1.3742E-04  
         76   9        -7.5344E+06  1.0846E+08 -3.4852E+06 -5.7245E-04  1.5817E-03 -1.2945E-04  
         77   1        -8.6357E+06  1.0809E+08 -5.3951E+06 -5.8659E-04  1.5811E-03 -2.0039E-04  
         77   2        -8.2364E+06  1.0771E+08 -5.1018E+06 -5.7927E-04  1.5740E-03 -1.8950E-04  
         77   3        -7.8607E+06  1.0740E+08 -4.8221E+06 -5.7256E-04  1.5679E-03 -1.7911E-04  
         77   4        -8.6804E+06  1.0520E+08 -7.6346E+06 -5.7486E-04  1.5400E-03 -2.8357E-04  
         77   5        -8.2761E+06  1.0497E+08 -7.2359E+06 -5.6811E-04  1.5351E-03 -2.6876E-04  
         77   6        -7.8934E+06  1.0481E+08 -6.8567E+06 -5.6195E-04  1.5311E-03 -2.5468E-04  
         77   7        -8.1891E+06  1.0206E+08 -9.5999E+06 -5.5441E-04  1.4932E-03 -3.5657E-04  
         77   8        -7.8008E+06  1.0201E+08 -9.1075E+06 -5.4860E-04  1.4906E-03 -3.3828E-04  
         77   9        -7.4310E+06  1.0200E+08 -8.6400E+06 -5.4331E-04  1.4890E-03 -3.2091E-04  
         78   1        -7.4806E+06  9.9919E+07 -1.0480E+07 -5.3509E-04  1.4595E-03 -3.8927E-04  
         78   2        -7.1270E+06  9.9969E+07 -9.9471E+06 -5.3025E-04  1.4587E-03 -3.6947E-04  
         78   3        -6.7836E+06  1.0007E+08 -9.4419E+06 -5.2579E-04  1.4587E-03 -3.5070E-04  
         78   4        -6.1052E+06  9.5765E+07 -1.1267E+07 -4.9764E-04  1.3942E-03 -4.1848E-04  
         78   5        -5.8149E+06  9.6024E+07 -1.0700E+07 -4.9460E-04  1.3967E-03 -3.9745E-04  
         78   6        -5.5297E+06  9.6330E+07 -1.0164E+07 -4.9184E-04  1.3998E-03 -3.7754E-04  
         78   7        -4.2011E+06  9.1914E+07 -1.1556E+07 -4.5393E-04  1.3311E-03 -4.2922E-04  
         78   8        -3.9951E+06  9.2373E+07 -1.0976E+07 -4.5296E-04  1.3367E-03 -4.0770E-04  
         78   9        -3.7880E+06  9.2871E+07 -1.0429E+07 -4.5214E-04  1.3430E-03 -3.8736E-04  
[...]
       447      -2.0126E-03  2.4051E-03   0.000       0.000     
       448      -1.8653E-03  2.9925E-03   0.000       0.000     
       449      -1.6985E-03  3.5670E-03   0.000       0.000     
       450      -1.5186E-03  4.1227E-03   0.000       0.000     
       451      -1.3315E-03  4.6528E-03   0.000       0.000     
       452      -1.1430E-03  5.1495E-03   0.000       0.000     
       453      -9.5745E-04  5.6041E-03   0.000       0.000     
       454      -7.7837E-04  6.0080E-03   0.000       0.000     
       455      -6.0765E-04  6.3524E-03   0.000       0.000     
       456      -4.4586E-04  6.6295E-03   0.000       0.000     
       457      -2.9210E-04  6.8327E-03   0.000       0.000     
       458      -1.4443E-04  6.9567E-03   0.000       0.000     
       459        0.000      6.9984E-03 -1.6661E+05   0.000     
       460      -2.3432E-03   0.000       0.000     -1.7261E+07 
       462      -2.2678E-03  1.2426E-03   0.000       0.000     
       464      -2.0545E-03  2.4713E-03   0.000       0.000     
       466      -1.7391E-03  3.6612E-03   0.000       0.000     
       468      -1.3689E-03  4.7699E-03   0.000       0.000     
       470      -9.8904E-04  5.7385E-03   0.000       0.000     
       472      -6.3070E-04  6.4986E-03   0.000       0.000     
       474      -3.0429E-04  6.9857E-03   0.000       0.000     
       476        0.000      7.1536E-03 -3.1551E+05   0.000     
       477      -2.3863E-03   0.000       0.000     -8.6137E+06 
       478      -2.3671E-03  6.3932E-04   0.000       0.000     
       479      -2.3107E-03  1.2769E-03   0.000       0.000     
       480      -2.2193E-03  1.9106E-03   0.000       0.000     
       481      -2.0970E-03  2.5377E-03   0.000       0.000     
       482      -1.9486E-03  3.1544E-03   0.000       0.000     
       483      -1.7800E-03  3.7558E-03   0.000       0.000     
       484      -1.5973E-03  4.3359E-03   0.000       0.000     
       485      -1.4063E-03  4.8876E-03   0.000       0.000     
       486      -1.2126E-03  5.4030E-03   0.000       0.000     
       487      -1.0206E-03  5.8737E-03   0.000       0.000     
       488      -8.3360E-04  6.2908E-03   0.000       0.000     
       489      -6.5366E-04  6.6458E-03   0.000       0.000     
       490      -4.8149E-04  6.9310E-03   0.000       0.000     
       491      -3.1641E-04  7.1399E-03   0.000       0.000     
       492      -1.5675E-04  7.2672E-03   0.000       0.000     
       493        0.000      7.3101E-03 -1.5013E+05   0.000     
       494      -2.4298E-03   0.000       0.000     -1.7200E+07 
       496      -2.3541E-03  1.3112E-03   0.000       0.000     
       498      -2.1398E-03  2.6043E-03   0.000       0.000     
       500      -1.8211E-03  3.8507E-03   0.000       0.000     
       502      -1.4439E-03  5.0058E-03   0.000       0.000     
       504      -1.0521E-03  6.0097E-03   0.000       0.000     
       506      -6.7654E-04  6.7941E-03   0.000       0.000     
       508      -3.2847E-04  7.2953E-03   0.000       0.000     
       510        0.000      7.4678E-03 -2.8472E+05   0.000     
       511      -2.4740E-03   0.000       0.000     -8.5860E+06 
       512      -2.4548E-03  6.7393E-04   0.000       0.000     
       513      -2.3981E-03  1.3456E-03   0.000       0.000     
       514      -2.3062E-03  2.0124E-03   0.000       0.000     
       515      -2.1830E-03  2.6709E-03   0.000       0.000     
       516      -2.0332E-03  3.3172E-03   0.000       0.000     
       517      -1.8624E-03  3.9459E-03   0.000       0.000     
       518      -1.6766E-03  4.5507E-03   0.000       0.000     
       519      -1.4815E-03  5.1245E-03   0.000       0.000     
       520      -1.2824E-03  5.6592E-03   0.000       0.000     
       521      -1.0836E-03  6.1463E-03   0.000       0.000     
       522      -8.8856E-04  6.5771E-03   0.000       0.000     
       523      -6.9934E-04  6.9432E-03   0.000       0.000     
       524      -5.1679E-04  7.2369E-03   0.000       0.000     
       525      -3.4046E-04  7.4517E-03   0.000       0.000     
       526      -1.6894E-04  7.5826E-03   0.000       0.000     
       527        0.000      7.6266E-03 -1.3568E+05   0.000     
       528      -2.5186E-03   0.000       0.000     -1.7149E+07 
       530      -2.4425E-03  1.3800E-03   0.000       0.000     
       532      -2.2266E-03  2.7378E-03   0.000       0.000     
       534      -1.9040E-03  4.0414E-03   0.000       0.000     
       536      -1.5192E-03  5.2436E-03   0.000       0.000     
       538      -1.1151E-03  6.2836E-03   0.000       0.000     
       540      -7.2205E-04  7.0932E-03   0.000       0.000     
       542      -3.5240E-04  7.6091E-03   0.000       0.000     
       544        0.000      7.7865E-03 -2.5775E+05   0.000     
       545      -2.5636E-03   0.000       0.000     -8.5627E+06 
       546      -2.5443E-03  7.0863E-04   0.000       0.000     
       547      -2.4873E-03  1.4145E-03   0.000       0.000     
       548      -2.3948E-03  2.1144E-03   0.000       0.000     
       549      -2.2704E-03  2.8047E-03   0.000       0.000     
       550      -2.1189E-03  3.4808E-03   0.000       0.000     
       551      -1.9457E-03  4.1371E-03   0.000       0.000     
       552      -1.7564E-03  4.7670E-03   0.000       0.000     
       553      -1.5569E-03  5.3632E-03   0.000       0.000     
       554      -1.3522E-03  5.9175E-03   0.000       0.000     
       555      -1.1465E-03  6.4216E-03   0.000       0.000     
       556      -9.4324E-04  6.8665E-03   0.000       0.000     
       557      -7.4468E-04  7.2440E-03   0.000       0.000     
       558      -5.5178E-04  7.5465E-03   0.000       0.000     
       559      -3.6428E-04  7.7675E-03   0.000       0.000     
       560      -1.8100E-04  7.9021E-03   0.000       0.000     
       561        0.000      7.9473E-03 -1.2305E+05   0.000     
       562      -2.6091E-03   0.000       0.000     -1.7106E+07 
       564      -2.5325E-03  1.4490E-03   0.000       0.000     
       566      -2.3146E-03  2.8717E-03   0.000       0.000     
       568      -1.9876E-03  4.2330E-03   0.000       0.000     
       570      -1.5947E-03  5.4831E-03   0.000       0.000     
       572      -1.1778E-03  6.5601E-03   0.000       0.000     
       574      -7.6724E-04  7.3955E-03   0.000       0.000     
       576      -3.7610E-04  7.9267E-03   0.000       0.000     
       578        0.000      8.1090E-03 -2.3419E+05   0.000     
       579      -2.6550E-03   0.000       0.000     -8.5427E+06 
       580      -2.6356E-03  7.4339E-04   0.000       0.000     
       581      -2.5781E-03  1.4835E-03   0.000       0.000     
       582      -2.4847E-03  2.2167E-03   0.000       0.000     
       583      -2.3590E-03  2.9389E-03   0.000       0.000     
       584      -2.2056E-03  3.6450E-03   0.000       0.000     
       585      -2.0296E-03  4.3291E-03   0.000       0.000     
       586      -1.8367E-03  4.9845E-03   0.000       0.000     
       587      -1.6325E-03  5.6034E-03   0.000       0.000     
       588      -1.4220E-03  6.1778E-03   0.000       0.000     
       589      -1.2091E-03  6.6991E-03   0.000       0.000     
       590      -9.9765E-04  7.1585E-03   0.000       0.000     
       591      -7.8971E-04  7.5477E-03   0.000       0.000     
       592      -5.8647E-04  7.8592E-03   0.000       0.000     
       593      -3.8786E-04  8.0866E-03   0.000       0.000     
       594      -1.9293E-04  8.2251E-03   0.000       0.000     
       595        0.000      8.2716E-03 -1.1207E+05   0.000     
       596      -2.7013E-03   0.000       0.000     -1.7069E+07 
       598      -2.6240E-03  1.5180E-03   0.000       0.000     
       600      -2.4038E-03  3.0061E-03   0.000       0.000     
       602      -2.0719E-03  4.4254E-03   0.000       0.000     
       604      -1.6704E-03  5.7240E-03   0.000       0.000     
       606      -1.2404E-03  6.8386E-03   0.000       0.000     
       608      -8.1212E-04  7.7006E-03   0.000       0.000     
       610      -3.9958E-04  8.2474E-03   0.000       0.000     
       612        0.000      8.4349E-03 -2.1371E+05   0.000     
       613      -2.7479E-03   0.000       0.000     -8.5253E+06 
       614      -2.7283E-03  7.7819E-04   0.000       0.000     
       615      -2.6703E-03  1.5526E-03   0.000       0.000     
       616      -2.5759E-03  2.3192E-03   0.000       0.000     
       617      -2.4487E-03  3.0733E-03   0.000       0.000     
       618      -2.2930E-03  3.8097E-03   0.000       0.000     
       619      -2.1142E-03  4.5219E-03   0.000       0.000     
       620      -1.9174E-03  5.2031E-03   0.000       0.000     
       621      -1.7083E-03  5.8449E-03   0.000       0.000     
       622      -1.4918E-03  6.4396E-03   0.000       0.000     
       623      -1.2716E-03  6.9785E-03   0.000       0.000     
       624      -1.0518E-03  7.4527E-03   0.000       0.000     
       625      -8.3444E-04  7.8540E-03   0.000       0.000     
       626      -6.2088E-04  8.1747E-03   0.000       0.000     
       627      -4.1124E-04  8.4088E-03   0.000       0.000     
       628      -2.0474E-04  8.5511E-03   0.000       0.000     
       629        0.000      8.5990E-03 -1.0271E+05   0.000     
       630      -2.7949E-03   0.000       0.000     -1.7036E+07 
       632      -2.7168E-03  1.5872E-03   0.000       0.000     
       634      -2.4939E-03  3.1407E-03   0.000       0.000     
       636      -2.1568E-03  4.6185E-03   0.000       0.000     
       638      -1.7462E-03  5.9661E-03   0.000       0.000     
       640      -1.3028E-03  7.1189E-03   0.000       0.000     
       642      -8.5669E-04  8.0080E-03   0.000       0.000     
       644      -4.2286E-04  8.5708E-03   0.000       0.000     
       646        0.000      8.7637E-03 -1.9603E+05   0.000     
       647      -2.8421E-03   0.000       0.000     -8.5108E+06 
       648      -2.8223E-03  8.1301E-04   0.000       0.000     
       649      -2.7637E-03  1.6218E-03   0.000       0.000     
       650      -2.6681E-03  2.4218E-03   0.000       0.000     
       651      -2.5393E-03  3.2081E-03   0.000       0.000     
       652      -2.3812E-03  3.9748E-03   0.000       0.000     
       653      -2.1994E-03  4.7153E-03   0.000       0.000     
       654      -1.9983E-03  5.4226E-03   0.000       0.000     
       655      -1.7842E-03  6.0875E-03   0.000       0.000     
       656      -1.5615E-03  6.7027E-03   0.000       0.000     
       657      -1.3339E-03  7.2597E-03   0.000       0.000     
       658      -1.1056E-03  7.7488E-03   0.000       0.000     
       659      -8.7887E-04  8.1625E-03   0.000       0.000     
       660      -6.5500E-04  8.4927E-03   0.000       0.000     
       661      -4.3442E-04  8.7335E-03   0.000       0.000     
       662      -2.1644E-04  8.8799E-03   0.000       0.000     
       663        0.000      8.9290E-03 -9.4793E+04   0.000     
       664      -2.8897E-03   0.000       0.000     -1.7008E+07 
       666      -2.8108E-03  1.6564E-03   0.000       0.000     
       668      -2.5850E-03  3.2754E-03   0.000       0.000     
       670      -2.2422E-03  4.8120E-03   0.000       0.000     
       672      -1.8222E-03  6.2092E-03   0.000       0.000     
       674      -1.3648E-03  7.4009E-03   0.000       0.000     
       676      -9.0093E-04  8.3175E-03   0.000       0.000     
       678      -4.4594E-04  8.8967E-03   0.000       0.000     
       680        0.000      9.0950E-03 -1.8099E+05   0.000     
       681      -2.9375E-03   0.000       0.000     -6.3663E+07 
       682      -2.9175E-03  8.4786E-04   0.000       0.000     
       683      -2.8581E-03  1.6910E-03   0.000       0.000     
       684      -2.7613E-03  2.5246E-03   0.000       0.000     
       685      -2.6308E-03  3.3428E-03   0.000       0.000     
       686      -2.4700E-03  4.1404E-03   0.000       0.000     
       687      -2.2850E-03  4.9088E-03   0.000       0.000     
       688      -2.0796E-03  5.6430E-03   0.000       0.000     
       689      -1.8602E-03  6.3312E-03   0.000       0.000     
       690      -1.6314E-03  6.9671E-03   0.000       0.000     
       691      -1.3957E-03  7.5425E-03   0.000       0.000     
       692      -1.1593E-03  8.0465E-03   0.000       0.000     
       693      -9.2293E-04  8.4729E-03   0.000       0.000     
       694      -6.8888E-04  8.8127E-03   0.000       0.000     
       695      -4.5742E-04  9.0604E-03   0.000       0.000     
       696      -2.2803E-04  9.2110E-03   0.000       0.000     
       697        0.000      9.2615E-03 -6.4928E+05   0.000     
       698      -3.6292E-03   0.000       0.000     -2.3639E+08 
       700      -3.5559E-03  2.3752E-03   0.000       0.000     
       702      -3.3527E-03  4.7155E-03   0.000       0.000     
       704      -3.0571E-03  6.9709E-03   0.000       0.000     
       706      -2.7048E-03  9.0794E-03   0.000       0.000     
       708      -2.0426E-03  1.0120E-02   0.000       0.000     
       710      -1.3564E-03  1.0932E-02   0.000       0.000     
       712      -6.7283E-04  1.1456E-02   0.000       0.000     
       714        0.000      1.1638E-02 -1.4113E+06   0.000     
       715      -4.3448E-03   0.000       0.000     -1.1761E+08 
       716      -4.3279E-03  1.5305E-03   0.000       0.000     
       717      -4.2787E-03  3.0579E-03   0.000       0.000     
       718      -4.2006E-03  4.5783E-03   0.000       0.000     
       719      -4.0995E-03  6.0862E-03   0.000       0.000     
       720      -3.9795E-03  7.5756E-03   0.000       0.000     
       721      -3.8460E-03  9.0382E-03   0.000       0.000     
       722      -3.7008E-03  1.0469E-02   0.000       0.000     
       723      -3.5469E-03  1.1859E-02   0.000       0.000     
       724      -3.1167E-03  1.2324E-02   0.000       0.000     
       725      -2.6756E-03  1.2747E-02   0.000       0.000     
       726      -2.2290E-03  1.3122E-02   0.000       0.000     
       727      -1.7791E-03  1.3446E-02   0.000       0.000     
       728      -1.3300E-03  1.3708E-02   0.000       0.000     
       729      -8.8371E-04  1.3903E-02   0.000       0.000     
       730      -4.4067E-04  1.4023E-02   0.000       0.000     
       731        0.000      1.4064E-02 -5.3705E+05   0.000     
       732      -5.0741E-03   0.000       0.000     -2.3468E+08 
       734      -5.0146E-03  3.7395E-03   0.000       0.000     
       736      -4.8563E-03  7.4549E-03   0.000       0.000     
       738      -4.6364E-03  1.1105E-02   0.000       0.000     
       740      -4.3782E-03  1.4641E-02   0.000       0.000     
       742      -3.2987E-03  1.5391E-02   0.000       0.000     
       744      -2.1948E-03  1.5984E-02   0.000       0.000     
       746      -1.0914E-03  1.6378E-02   0.000       0.000     
       748        0.000      1.6518E-02 -1.0017E+06   0.000     
       749      -5.8111E-03   0.000       0.000     -1.1705E+08 
       750      -5.7970E-03  2.2101E-03   0.000       0.000     
       751      -5.7572E-03  4.4187E-03   0.000       0.000     
       752      -5.6950E-03  6.6230E-03   0.000       0.000     
       753      -5.6160E-03  8.8190E-03   0.000       0.000     
       754      -5.5244E-03  1.1002E-02   0.000       0.000     
       755      -5.4232E-03  1.3166E-02   0.000       0.000     
       756      -5.3147E-03  1.5306E-02   0.000       0.000     
       757      -5.1994E-03  1.7420E-02   0.000       0.000     
       758      -4.5589E-03  1.7743E-02   0.000       0.000     
       759      -3.9109E-03  1.8039E-02   0.000       0.000     
       760      -3.2579E-03  1.8304E-02   0.000       0.000     
       761      -2.6023E-03  1.8534E-02   0.000       0.000     
       762      -1.9473E-03  1.8724E-02   0.000       0.000     
       763      -1.2950E-03  1.8868E-02   0.000       0.000     
       764      -6.4627E-04  1.8957E-02   0.000       0.000     
       765        0.000      1.8988E-02 -5.5393E+05   0.000     
       766      -6.5527E-03   0.000       0.000     -2.3357E+08 
       768      -6.5030E-03  5.0950E-03   0.000       0.000     
       770      -6.3751E-03  1.0178E-02   0.000       0.000     
       772      -6.2049E-03  1.5221E-02   0.000       0.000     
       774      -6.0100E-03  2.0193E-02   0.000       0.000     
       776      -4.5126E-03  2.0686E-02   0.000       0.000     
       778      -3.0012E-03  2.1088E-02   0.000       0.000     
       780      -1.4940E-03  2.1366E-02   0.000       0.000     
       782        0.000      2.1468E-02 -1.4245E+06   0.000     
       783      -7.2972E-03   0.000       0.000     -1.1649E+08 
       784      -7.2847E-03  2.8835E-03   0.000       0.000     
       785      -7.2499E-03  5.7669E-03   0.000       0.000     
       786      -7.1970E-03  8.6501E-03   0.000       0.000     
       787      -7.1320E-03  1.1530E-02   0.000       0.000     
       788      -7.0594E-03  1.4405E-02   0.000       0.000     
       789      -6.9816E-03  1.7270E-02   0.000       0.000     
       790      -6.8995E-03  2.0123E-02   0.000       0.000     
       791      -6.8125E-03  2.2962E-02   0.000       0.000     
       792      -5.9597E-03  2.3152E-02   0.000       0.000     
       793      -5.1040E-03  2.3330E-02   0.000       0.000     
       794      -4.2467E-03  2.3494E-02   0.000       0.000     
       795      -3.3898E-03  2.3642E-02   0.000       0.000     
       796      -2.5362E-03  2.3769E-02   0.000       0.000     
       797      -1.6863E-03  2.3869E-02   0.000       0.000     
       798      -8.4185E-04  2.3932E-02   0.000       0.000     
       799        0.000      2.3955E-02 -9.3878E+05   0.000     
       800      -8.0427E-03   0.000       0.000     -2.3227E+08 
       802      -7.9963E-03  6.4333E-03   0.000       0.000     
       804      -7.8863E-03  1.2875E-02   0.000       0.000     
       806      -7.7545E-03  1.9313E-02   0.000       0.000     
       808      -7.6112E-03  2.5729E-02   0.000       0.000     
       810      -5.6868E-03  2.5973E-02   0.000       0.000     
       812      -3.7671E-03  2.6195E-02   0.000       0.000     
       814      -1.8702E-03  2.6372E-02   0.000       0.000     
       816        0.000      2.6444E-02 -2.6573E+06   0.000     
       817      -8.7873E-03   0.000       0.000     -5.7828E+07 
       818      -8.7752E-03  3.5421E-03   0.000       0.000     
       819      -8.7413E-03  7.0893E-03   0.000       0.000     
       820      -8.6934E-03  1.0647E-02   0.000       0.000     
       821      -8.6389E-03  1.4213E-02   0.000       0.000     
       822      -8.5825E-03  1.7783E-02   0.000       0.000     
       823      -8.5255E-03  2.1354E-02   0.000       0.000     
       824      -8.4676E-03  2.4925E-02   0.000       0.000     
       825      -8.4086E-03  2.8496E-02   0.000       0.000     
       826      -7.3368E-03  2.8556E-02   0.000       0.000     
       827      -6.2657E-03  2.8617E-02   0.000       0.000     
       828      -5.1958E-03  2.8680E-02   0.000       0.000     
       829      -4.1318E-03  2.8748E-02   0.000       0.000     
       830      -3.0788E-03  2.8815E-02   0.000       0.000     
       831      -2.0386E-03  2.8875E-02   0.000       0.000     
       832      -1.0153E-03  2.8918E-02   0.000       0.000     
       833        0.000      2.8933E-02 -9.4909E+05   0.000     

 MAXIMUM          0.000      2.8933E-02  9.5036E+06   0.000    
 AT NODE                17         833          34           2

 MINIMUM        -8.7873E-03   0.000     -2.6573E+06 -2.3639E+08
 AT NODE               817           1         816         698


          THE ANALYSIS HAS BEEN COMPLETED



                              ANALYSIS COMPLETE



     JOB TIME SUMMARY
       USER TIME (SEC)      =  0.30000    
       SYSTEM TIME (SEC)    =  0.10000    
       TOTAL CPU TIME (SEC) =  0.40000    
       WALLCLOCK TIME (SEC) =          1
