1

  ABAQUS VERSION 6.4-1                                     DATE 07-Apr-2008   TIME 20:04:31        PAGE     1
 





    AAAAAA     BBBBBBBBB      AAAAAA      QQQQQQQQ    U        U    SSSSSSSS
   A      A    B        B    A      A    Q        Q   U        U   S
  A        A   B        B   A        A   Q        Q   U        U   S
  A        A   B        B   A        A   Q        Q   U        U   S
  AAAAAAAAAA   BBBBBBBBB    AAAAAAAAAA   Q        Q   U        U    SSSSSSSS
  A        A   B        B   A        A   Q    Q   Q   U        U            S
  A        A   B        B   A        A   Q     Q  Q   U        U            S
  A        A   B        B   A        A   Q      Q Q   U        U            S
  A        A   BBBBBBBBB    A        A    QQQQQQQQ     UUUUUUUU     SSSSSSSS
 



                      This program has been developed by
 
                                  ABAQUS, Inc.
                                1080 Main Street
                             Pawtucket, R.I. 02860
 


                   Available for internal use at University of Virginia. 
                   Support of your usage is not included in the license
                   price.  To purchase support, or send information to ABAQUS, Inc.
                   about a suspected error, please follow the procedures
                   described in the ABAQUS academic support instructions
                   document. A copy of this document has been sent to the
                   designated user at your site. Additional copies can be
                   obtained by contacting ABAQUS, Inc. or your local ABAQUS
                   representative.

                   Should you have any questions concerning the terms of
                   this academic license, please contact the designated
                   user at your university, Brad Sayler
 
                        On machine d107-14 
                        you are authorized to run
                        ABAQUS/Standard until 31-Dec-2008

                        Your site id is: 08UVA_X 


 
                    For assistance or any other information contact

                           ABAQUS, INC.
                           1080 Main Street
                           Pawtucket, RI 02860-4847
                           U.S.A.
                           Tel: (1) 401 727 4200
                           Fax: (1) 401 727 4208
                           E-mail: info@abaqus.com
                           Web: http://www.abaqus.com
                           Technical support: support@abaqus.com 


                * * * * * * * * * * * * * * * * * * * * * * * * * * * * * * 
                *                                                         * 
                *                   *****************                     * 
                *                   *  N O T I C E  *                     * 
                *                   *****************                     * 
                *                                                         * 
                *                                                         * 
                *                 ABAQUS VERSION 6.4-1                    * 
                *                                                         * 
                *          BUILD ID: 2003_09_29-11.18.28 46457            * 
                *                                                         * 
                *                                                         * 
                *  Please make sure you are using version 6.4 manuals     * 
                *  plus the notes accompanying this release.              * 
                *                                                         * 
                *                                                         * 
                *   This program may not be used for commercial purposes  * 
                *           without payment of a monthly charge.          * 
                *                                                         * 
                * * * * * * * * * * * * * * * * * * * * * * * * * * * * * * 


 



     PROCESSING PART, INSTANCE, AND ASSEMBLY INFORMATION
   *******************************************************


     END PROCESSING PART, INSTANCE, AND ASSEMBLY INFORMATION
   ***********************************************************




     OPTIONS BEING PROCESSED
   ***************************


  *Heading
          2-D plate with hole: 8-noded elements                                                                                                                                                                                                                           
  *NODE
  *NODE,NSET=N1
  *NODE,NSET=N2
  *NODE,NSET=N3
  *NODE,NSET=N4
  *NODE,NSET=N5
  *NODE,NSET=N6
  *NODE,NSET=N7
  *NGEN,NSET=ARC1,LINE=C
  *NGEN,NSET=ARC2,LINE=C
  *NFILL,NSET=ALL, BIAS= 1.000
  *NGEN,NSET=ROW1
  *NGEN,NSET=ROW1
  *NFILL,NSET=ALL, BIAS= 1.000
  *ELEMENT, ELSET=ALL, TYPE=CPS8
  *ELGEN, ELSET=ALL
  *ELSET,ELSET=TOP,GENERATE
  *NSET, NSET=YAXIS,GENERATE
  *NSET, NSET=XAXIS,GENERATE
  *MATERIAL,NAME=ALUM
  *ELASTIC
  *SOLID SECTION, ELSET=ALL, MAT=ALUM
  *BOUNDARY
  *SOLID SECTION, ELSET=ALL, MAT=ALUM
  *STEP
  *STEP
  *STEP
  *STATIC
  *BOUNDARY
  *DLOAD
  *EL PRINT
  *END STEP
  *STEP
  *STATIC
  *BOUNDARY
  *NODE PRINT
  *END STEP
1

   ABAQUS VERSION 6.4-1                                 DATE 07-Apr-2008       TIME 20:04:31        PAGE    2
   For use at None under academic license from ABAQUS, Inc.                                                                        

     2-D plate with hole: 8-noded elements                                           



                            P R O B L E M   S I Z E


          NUMBER OF ELEMENTS IS                                   272
          NUMBER OF NODES IS                                      901
          NUMBER OF NODES DEFINED BY THE USER                     901
          TOTAL NUMBER OF VARIABLES IN THE MODEL                 1802
          (DEGREES OF FREEDOM PLUS ANY LAGRANGE MULTIPLIER VARIABLES)



                              END OF USER INPUT PROCESSING



     JOB TIME SUMMARY
       USER TIME (SEC)      =  0.40000    
       SYSTEM TIME (SEC)    =   0.0000    
       TOTAL CPU TIME (SEC) =  0.40000    
       WALLCLOCK TIME (SEC) =          0
1

   ABAQUS VERSION 6.4-1                                     DATE 07-Apr-2008   TIME 20:04:32        PAGE    1
   For use at None under academic license from ABAQUS, Inc.                                                                        

     2-D plate with hole: 8-noded elements                                                     STEP    1  INCREMENT    1
                                                                                          TIME COMPLETED IN THIS STEP   0.00    


                        S T E P       1     S T A T I C   A N A L Y S I S


                                                                                          

     AUTOMATIC TIME CONTROL WITH -
          A SUGGESTED INITIAL TIME INCREMENT OF                 1.00    
          AND A TOTAL TIME PERIOD OF                            1.00    
          THE MINIMUM TIME INCREMENT ALLOWED IS                1.000E-06
          THE MAXIMUM TIME INCREMENT ALLOWED IS                 1.00    

     LINEAR EQUATION SOLVER TYPE         DIRECT SPARSE
  
  
  
                   M E M O R Y   A N D   D I S K   E S T I M A T E
  
  
           SUMMARY FOR CURRENT NODE ORDERING
          (NOTE THAT IF NODE ORDERING CHANGES THE SIZE ESTIMATES FOR THE STEPS WILL CHANGE)
  
  
           STEP   MAXIMUM DOF     FLOATING PT    MINIMUM MEMORY      MEMORY TO      REQUIRED DISKSPACE
                  WAVEFRONT       OPERATIONS       REQUIRED        MINIMIZE I/O
                                PER ITERATION     (MBYTES)           (MBYTES)          (KBYTES)
  
             1         102        4.11E+006         14.78              14.78            963.30
          ----    ---------      ------------    -------------     -------------      -------------
           MAX         102        4.11E+006         14.78              14.78            963.30
  
  
          THE TABLE ABOVE PROVIDES A STEP BY STEP SUMMARY OF SOME BASIC SIZING INFORMATION
          FOR THE PROBLEM. SOME FURTHER DESCRIPTION OF THE PARAMETERS GIVEN FOLLOWS:
  
          (1) MAXIMUM DOF WAVEFRONT - SIZE OF THE BIGGEST FRONT IN THE EQUATION SOLVER.
              PROVIDES A BASIC SIZING OF THE MOST MEMORY INTENSIVE SEGMENT OF SOLVER.
          (2) FLOATING POINT OPERATIONS PER ITERATION - MEASURE OF THE NUMBER OF FLOATING
              POINT OPERATIONS REQUIRED FOR A SINGLE SOLVER PASS. ON A GIVEN PLATFORM
              THE TIME REQUIRED FOR A SOLVER PASS WILL BE ROUGHLY A LINEAR FUNCTION
              OF THIS VALUE.
              NOTE - EXCEPT FOR THE FIRST STEP, THE VALUE IN THIS TABLE DOES NOT INCLUDE
                     ADDITIONAL FLOATING POINT OPERATIONS THAT ARE REQUIRED IN MULTIPLE LOAD
                     CASE STEPS WHEN CONSTRAINTS CHANGE FROM LOAD CASE TO LOAD CASE.  THIS
                     SITUATION CAUSES A REORDERING TO BE PERFORMED, AT WHICH TIME AN UPPER
                     BOUND ON THE NUMBER OF ADDITIONAL FLOATING POINT OPERATIONS WILL BE
                     CALCULATED AND INCLUDED UNDER THE ESTIMATE SUMMARIES FOR THE RELEVANT
                     STEPS (SEE NOTE BELOW ON REORDERING).
          (3) MINIMUM MEMORY REQUIRED - MINIMUM POSSIBLE MEMORY VALUE FOR standard_memory
              THAT ENABLES ABAQUS TO SOLVE THE PROBLEM. USE OF MEMORY WILL BE MINIMIZED BY
              WRITING AS MUCH INFORMATION AS POSSIBLE TO DISK WHICH WILL INCREASE I/O TIME.
          (4) MEMORY TO MINIMIZE I/O - VALUE OF standard_memory THAT ALLOWS ABAQUS TO KEEP
              ALL SIGNIFICANT SCRATCH FILES IN MEMORY. THIS WILL MINIMIZE I/O TIME FOR THE USER
              WITH ACCESS TO A LARGE AMOUNT OF MEMORY.
          (5) REQUIRED DISKSPACE - AMOUNT OF DISK REQUIRED FOR SCRATCH FILES. THESE WILL BE
              DELETED AT THE END OF THE ANALYSIS.
  
  
           NOTE - WHENEVER POSSIBLE THE USER SHOULD SET standard_memory TO BE LESS THAN THE
          PHYSICAL MEMORY ON THE MACHINE. UNLESS NECESSARY USERS SHOULD NOT MAKE USE
          OF VIRTUAL MEMORY EVEN IN AN ATTEMPT TO KEEP SCRATCH FILES IN MEMORY.
  
           NOTE - IF A REORDERING IS PERFORMED (THIS WILL GENERALLY BE DONE ONLY FOR 3D-3D
          LARGE SLIDING PROBLEMS), THE SIZE ESTIMATES DONE AT THIS TIME WILL NO LONGER BE VALID.
          THE ESTIMATES WILL BE REDONE IN THE EVENT OF A REORDERING AND A NEW SUMMARY WILL BE
          BE PRINTED FOR THE REMAINING STEPS.
  
  
  
           S I Z E   E S T I M A T E S   F O R   C U R R E N T   S T E P
  
          NUMBER OF EQUATIONS                        1802
          MAX DOF WAVEFRONT                          102
          FLOATING POINT OPS PER SOLVER ITERATION   4.11E+006
          MEMORY USED FOR STEP                      14.87 MBYTES
  
  
           ESTIMATED FILE SIZES
  
           FILE           KWORDS           KBYTES
  
          .fct            77.607          606.305
          .nck             4.352           34.000
          .opr            41.344          323.000
          -------        -------          -------
           TOTAL         123.303          963.305
  


                                INCREMENT     1 SUMMARY


 TIME INCREMENT COMPLETED   1.00    ,  FRACTION OF STEP COMPLETED   1.00    
 STEP TIME COMPLETED        1.00    ,  TOTAL TIME COMPLETED         1.00    



                                                  E L E M E N T   O U T P U T





   THE FOLLOWING TABLE IS PRINTED FOR ALL ELEMENTS WITH TYPE CPS8 AT THE INTEGRATION POINTS

    ELEMENT  PT FOOT-       S11         S22         S12         E11         E22         E12     
                NOTE 

          1   1         6.9716E+06  2.8846E+08 -5.9396E+06 -1.1367E-03  4.0910E-03 -2.2061E-04  
          1   2         1.6553E+07  2.5104E+08 -3.8900E+06 -8.3941E-04  3.5153E-03 -1.4449E-04  
          1   3         2.9532E+07  2.2483E+08 -2.5152E+06 -5.4167E-04  3.0853E-03 -9.3422E-05  
          1   4         1.0034E+07  2.8327E+08 -2.5519E+07 -1.0707E-03  4.0037E-03 -9.4787E-04  
          1   5         1.7808E+07  2.4744E+08 -1.7845E+07 -8.0604E-04  3.4585E-03 -6.6281E-04  
          1   6         2.9093E+07  2.2271E+08 -1.1252E+07 -5.3885E-04  3.0569E-03 -4.1795E-04  
          1   7         1.3783E+07  2.7031E+08 -4.3592E+07 -9.6158E-04  3.8025E-03 -1.6191E-03  
          1   8         1.9747E+07  2.3766E+08 -3.0585E+07 -7.3643E-04  3.3105E-03 -1.1360E-03  
          1   9         2.9344E+07  2.1588E+08 -1.9046E+07 -5.0602E-04  2.9583E-03 -7.0744E-04  
          2   1         1.7364E+07  2.5973E+08 -5.2889E+07 -8.6507E-04  3.6360E-03 -1.9645E-03  
          2   2         2.1478E+07  2.3073E+08 -3.6883E+07 -6.8200E-04  3.2040E-03 -1.3699E-03  
          2   3         2.9309E+07  2.1076E+08 -2.3299E+07 -4.8453E-04  2.8852E-03 -8.6540E-04  
          2   4         2.5360E+07  2.3859E+08 -6.5678E+07 -6.6026E-04  3.2998E-03 -2.4395E-03  
          2   5         2.5023E+07  2.1501E+08 -4.6699E+07 -5.6397E-04  2.9643E-03 -1.7345E-03  
          2   6         2.8687E+07  2.0007E+08 -3.0370E+07 -4.4761E-04  2.7351E-03 -1.1280E-03  
          2   7         3.2582E+07  2.1222E+08 -7.4735E+07 -4.4406E-04  2.8921E-03 -2.7759E-03  
          2   8         2.8078E+07  1.9512E+08 -5.3498E+07 -4.3511E-04  2.6671E-03 -1.9871E-03  
          2   9         2.7843E+07  1.8621E+08 -3.5089E+07 -4.0026E-04  2.5408E-03 -1.3033E-03  
          3   1         3.6837E+07  1.9503E+08 -7.7659E+07 -3.0960E-04  2.6282E-03 -2.8845E-03  
          3   2         3.0025E+07  1.8356E+08 -5.6093E+07 -3.5775E-04  2.4936E-03 -2.0835E-03  
          3   3         2.7233E+07  1.7728E+08 -3.7353E+07 -3.7071E-04  2.4158E-03 -1.3874E-03  
          3   4         4.3785E+07  1.6593E+08 -7.8950E+07 -8.5651E-05  2.1828E-03 -2.9324E-03  
          3   5         3.2530E+07  1.6091E+08 -5.8498E+07 -2.2489E-04  2.1593E-03 -2.1728E-03  
          3   6         2.5570E+07  1.6060E+08 -4.0822E+07 -3.2299E-04  2.1847E-03 -1.5163E-03  
          3   7         4.8057E+07  1.3549E+08 -7.6208E+07  1.0587E-04  1.7296E-03 -2.8306E-03  
          3   8         3.2999E+07  1.3718E+08 -5.7614E+07 -1.1649E-04  1.8182E-03 -2.1400E-03  
          3   9         2.2471E+07  1.4310E+08 -4.1695E+07 -2.9229E-04  1.9480E-03 -1.5487E-03  
          4   1         4.8997E+07  1.1764E+08 -7.2298E+07  1.9579E-04  1.4706E-03 -2.6854E-03  
          4   2         3.3099E+07  1.2452E+08 -5.6098E+07 -6.0801E-05  1.6370E-03 -2.0837E-03  
          4   3         2.0606E+07  1.3251E+08 -4.1608E+07 -2.7351E-04  1.8046E-03 -1.5454E-03  
          4   4         4.8515E+07  9.0347E+07 -6.3315E+07  3.0586E-04  1.0828E-03 -2.3517E-03  
          4   5         3.0945E+07  1.0161E+08 -5.1446E+07  6.5805E-06  1.3190E-03 -1.9108E-03  
          4   6         1.6867E+07  1.1366E+08 -4.1018E+07 -2.4616E-04  1.5514E-03 -1.5235E-03  
          4   7         4.4421E+07  6.5215E+07 -5.1966E+07  3.5509E-04  7.4127E-04 -1.9302E-03  
          4   8         2.5964E+07  8.0447E+07 -4.4804E+07  2.6146E-05  1.0380E-03 -1.6641E-03  
          4   9         1.1030E+07  9.6155E+07 -3.8787E+07 -2.5452E-04  1.3264E-03 -1.4407E-03  
          5   1         3.9541E+07  5.1792E+07 -4.4165E+07  3.4291E-04  5.7042E-04 -1.6404E-03  
          5   2         2.2952E+07  6.9864E+07 -4.0645E+07  2.8474E-05  8.9969E-04 -1.5097E-03  
          5   3         7.6483E+06  8.6048E+07 -3.6892E+07 -2.5951E-04  1.1965E-03 -1.3703E-03  
          5   4         2.8936E+07  3.3229E+07 -3.1046E+07  2.7096E-04  3.5069E-04 -1.1531E-03  
          5   5         1.4685E+07  5.1982E+07 -3.2442E+07 -1.3001E-05  6.7967E-04 -1.2050E-03  
          5   6         1.5353E+06  6.8766E+07 -3.3294E+07 -2.7278E-04  9.7580E-04 -1.2366E-03  
          5   7         1.5687E+07  1.8647E+07 -1.8149E+07  1.4418E-04  1.9916E-04 -6.7410E-04  
          5   8         4.2981E+06  3.7313E+07 -2.4294E+07 -9.8509E-05  5.1462E-04 -9.0236E-04  
          5   9        -6.2124E+06  5.3981E+07 -2.9597E+07 -3.2010E-04  7.9778E-04 -1.0993E-03  
          6   1         5.7311E+06  1.1693E+07 -1.0969E+07  3.1758E-05  1.4249E-04 -4.0744E-04  
          6   2        -1.3672E+06  3.0418E+07 -1.9881E+07 -1.4990E-04  4.4041E-04 -7.3843E-04  
          6   3        -1.0597E+07  4.5902E+07 -2.6937E+07 -3.4811E-04  7.0116E-04 -1.0005E-03  
          6   4        -1.1972E+07  3.2771E+06 -1.0445E+06 -1.8507E-04  9.8123E-05 -3.8794E-05  
          6   5        -1.3776E+07  1.9566E+07 -1.2618E+07 -2.8066E-04  3.3855E-04 -4.6869E-04  
          6   6        -1.8091E+07  3.2751E+07 -2.2177E+07 -3.9880E-04  5.4540E-04 -8.2370E-04  
          6   7        -2.9592E+07 -1.3060E+06  6.6646E+06 -4.1714E-04  1.0816E-04  2.4754E-04  
          6   8        -2.6204E+07  1.1844E+07 -7.0045E+06 -4.2511E-04  2.8151E-04 -2.6017E-04  
          6   9        -2.5703E+07  2.2073E+07 -1.8538E+07 -4.6179E-04  4.2548E-04 -6.8856E-04  
          7   1        -4.0747E+07 -3.0933E+06  9.7822E+06 -5.6884E-04  1.3044E-04  3.6334E-04  
          7   2        -3.2411E+07  8.4379E+06 -4.2458E+06 -4.9917E-04  2.5944E-04 -1.5770E-04  
          7   3        -2.9876E+07  1.6707E+07 -1.6047E+07 -4.9841E-04  3.6671E-04 -5.9602E-04  
          7   4        -5.8087E+07 -4.8419E+06  1.2228E+07 -8.0907E-04  1.7978E-04  4.5418E-04  
          7   5        -4.4279E+07  3.4739E+06 -8.1945E+05 -6.4744E-04  2.3939E-04 -3.0437E-05  
          7   6        -3.6656E+07  8.7291E+06 -1.1724E+07 -5.6107E-04  2.8180E-04 -4.3548E-04  
          7   7        -7.2071E+07 -4.0574E+06  1.2156E+07 -1.0122E-03  2.5091E-04  4.5150E-04  
          7   8        -5.3620E+07  6.4089E+05  6.8637E+05 -7.6875E-04  2.3896E-04  2.5494E-05  
          7   9        -4.1686E+07  2.5005E+06 -8.7689E+06 -6.0624E-04  2.1438E-04 -3.2570E-04  
          8   1        -7.9386E+07 -3.7464E+06  1.0752E+07 -1.1180E-03  2.8671E-04  3.9935E-04  
          8   2        -5.7656E+07 -5.2622E+05  1.3830E+06 -8.2140E-04  2.3958E-04  5.1370E-05  
          8   3        -4.4240E+07 -1.0788E+05 -6.8080E+06 -6.3154E-04  1.8806E-04 -2.5287E-04  
          8   4        -8.8399E+07 -3.8819E+06  6.7503E+06 -1.2462E-03  3.2340E-04  2.5073E-04  
          8   5        -6.3940E+07 -2.0820E+06  1.1588E+06 -9.0450E-04  2.4428E-04  4.3043E-05  
          8   6        -4.7985E+07 -2.9902E+06 -3.5292E+06 -6.7268E-04  1.6293E-04 -1.3108E-04  
          8   7        -9.1854E+07 -2.6175E+06  1.6678E+06 -1.3010E-03  3.5627E-04  6.1948E-05  
          8   8        -6.5981E+07 -2.3873E+06  1.0461E+05 -9.3235E-04  2.4867E-04  3.8856E-06  
          8   9        -4.8714E+07 -4.7705E+06 -8.4758E+05 -6.7547E-04  1.4062E-04 -3.1482E-05  
          9   1         3.1255E+07  2.1173E+08 -1.9425E+06 -4.6090E-04  2.8907E-03 -7.2148E-05  
          9   2         3.3536E+07  1.9309E+08 -1.0979E+06 -3.4846E-04  2.6148E-03 -4.0778E-05  
          9   3         3.7254E+07  1.7921E+08 -5.0698E+05 -2.3585E-04  2.4005E-03 -1.8831E-05  
          9   4         3.1632E+07  2.1061E+08 -8.7061E+06 -4.5073E-04  2.8731E-03 -3.2337E-04  
          9   5         3.3181E+07  1.9258E+08 -5.5040E+06 -3.5132E-04  2.6089E-03 -2.0443E-04  
          9   6         3.6206E+07  1.7927E+08 -2.6971E+06 -2.5107E-04  2.4058E-03 -1.0018E-04  
          9   7         3.0186E+07  2.0448E+08 -1.4999E+07 -4.4513E-04  2.7918E-03 -5.5709E-04  
          9   8         3.1155E+07  1.8788E+08 -9.5537E+06 -3.6012E-04  2.5504E-03 -3.5485E-04  
          9   9         3.3629E+07  1.7591E+08 -4.6389E+06 -2.7349E-04  2.3689E-03 -1.7230E-04  
         10   1         2.9443E+07  2.0013E+08 -1.8396E+07 -4.3708E-04  2.7328E-03 -6.8327E-04  
         10   2         2.9783E+07  1.8514E+08 -1.1701E+07 -3.6797E-04  2.5172E-03 -4.3459E-04  
         10   3         3.1641E+07  1.7406E+08 -5.8934E+06 -2.9398E-04  2.3510E-03 -2.1890E-04  
         10   4         2.8642E+07  1.9199E+08 -2.4025E+07 -4.1366E-04  2.6200E-03 -8.9236E-04  
         10   5         2.7315E+07  1.7927E+08 -1.6003E+07 -3.7809E-04  2.4440E-03 -5.9438E-04  
         10   6         2.7592E+07  1.7034E+08 -8.9563E+06 -3.3588E-04  2.3152E-03 -3.3266E-04  
         10   7         2.5970E+07  1.7993E+08 -2.8448E+07 -4.0012E-04  2.4591E-03 -1.0567E-03  
         10   8         2.3211E+07  1.7007E+08 -1.9382E+07 -3.9730E-04  2.3302E-03 -7.1989E-04  
         10   9         2.2128E+07  1.6385E+08 -1.1363E+07 -3.8612E-04  2.2460E-03 -4.2204E-04  
         11   1         2.4339E+07  1.7214E+08 -3.0564E+07 -3.9006E-04  2.3549E-03 -1.1352E-03  
         11   2         2.0852E+07  1.6484E+08 -2.1317E+07 -4.0857E-04  2.2655E-03 -7.9177E-04  
         11   3         1.8910E+07  1.5998E+08 -1.3113E+07 -4.1551E-04  2.2044E-03 -4.8705E-04  
         11   4         2.2030E+07  1.5868E+08 -3.3833E+07 -3.6535E-04  2.1725E-03 -1.2566E-03  
         11   5         1.6941E+07  1.5422E+08 -2.4858E+07 -4.1892E-04  2.1305E-03 -9.2331E-04  
         11   6         1.3479E+07  1.5205E+08 -1.6931E+07 -4.5908E-04  2.1144E-03 -6.2888E-04  
         11   7         1.7958E+07  1.4310E+08 -3.5672E+07 -3.5674E-04  1.9673E-03 -1.3250E-03  
         11   8         1.1590E+07  1.4172E+08 -2.7273E+07 -4.4180E-04  1.9749E-03 -1.0130E-03  
         11   9         6.9136E+06  1.4246E+08 -1.9907E+07 -5.1180E-04  2.0056E-03 -7.3940E-04  
         12   1         1.5320E+07  1.3343E+08 -3.6166E+07 -3.5300E-04  1.8405E-03 -1.3433E-03  
         12   2         8.8500E+06  1.3454E+08 -2.8690E+07 -4.5015E-04  1.8840E-03 -1.0656E-03  
         12   3         3.6005E+06  1.3652E+08 -2.1877E+07 -5.3363E-04  1.9348E-03 -8.1257E-04  
         12   4         1.1269E+07  1.1728E+08 -3.6636E+07 -3.4166E-04  1.6272E-03 -1.3608E-03  
         12   5         4.2948E+06  1.2058E+08 -3.0723E+07 -4.5540E-04  1.7041E-03 -1.1411E-03  
         12   6        -1.4332E+06  1.2462E+08 -2.5408E+07 -5.5456E-04  1.7864E-03 -9.4373E-04  
         12   7         5.9678E+06  1.0100E+08 -3.5999E+07 -3.4758E-04  1.4172E-03 -1.3371E-03  
         12   8        -1.1910E+06  1.0638E+08 -3.1819E+07 -4.7293E-04  1.5248E-03 -1.1818E-03  
         12   9        -7.0959E+06  1.1240E+08 -2.8161E+07 -5.8307E-04  1.6361E-03 -1.0460E-03  
         13   1         2.4658E+06  9.1180E+07 -3.5037E+07 -3.5554E-04  1.2920E-03 -1.3014E-03  
         13   2        -3.7186E+06  9.8166E+07 -3.2315E+07 -4.7383E-04  1.4183E-03 -1.2003E-03  
         13   3        -9.5434E+06  1.0482E+08 -2.9585E+07 -5.8555E-04  1.5383E-03 -1.0989E-03  
         13   4        -3.0905E+06  7.5186E+07 -3.3094E+07 -3.6637E-04  1.0873E-03 -1.2292E-03  
         13   5        -8.2334E+06  8.3000E+07 -3.2239E+07 -4.7334E-04  1.2210E-03 -1.1975E-03  
         13   6        -1.3071E+07  9.0426E+07 -3.1292E+07 -5.7427E-04  1.3478E-03 -1.1623E-03  
         13   7        -8.8614E+06  6.0718E+07 -3.0671E+07 -3.8681E-04  9.0538E-04 -1.1392E-03  
         13   8        -1.2802E+07  6.9053E+07 -3.1650E+07 -4.7883E-04  1.0413E-03 -1.1756E-03  
         13   9        -1.6501E+07  7.6960E+07 -3.2455E+07 -5.6556E-04  1.1701E-03 -1.2055E-03  
         14   1        -1.2694E+07  5.2246E+07 -2.8748E+07 -4.0526E-04  8.0078E-04 -1.0678E-03  
         14   2        -1.4733E+07  6.1059E+07 -3.0891E+07 -4.7215E-04  9.3542E-04 -1.1474E-03  
         14   3        -1.7711E+07  6.8907E+07 -3.2461E+07 -5.4832E-04  1.0603E-03 -1.2057E-03  
         14   4        -1.8862E+07  3.8796E+07 -2.5282E+07 -4.3572E-04  6.3506E-04 -9.3903E-04  
         14   5        -1.8736E+07  4.7214E+07 -2.8519E+07 -4.7000E-04  7.5478E-04 -1.0593E-03  
         14   6        -1.9663E+07  5.4675E+07 -3.1137E+07 -5.1522E-04  8.6534E-04 -1.1565E-03  
         14   7        -2.3844E+07  2.7969E+07 -2.1899E+07 -4.6050E-04  5.0175E-04 -8.1339E-04  
         14   8        -2.1684E+07  3.5628E+07 -2.6044E+07 -4.6246E-04  6.0190E-04 -9.6733E-04  
         14   9        -2.0681E+07  4.2361E+07 -2.9534E+07 -4.7699E-04  6.9379E-04 -1.0970E-03  
         15   1        -2.7165E+07  2.1872E+07 -1.9550E+07 -4.8181E-04  4.2889E-04 -7.2613E-04  
         15   2        -2.2899E+07  2.9248E+07 -2.3958E+07 -4.5248E-04  5.1597E-04 -8.8986E-04  
         15   3        -2.0924E+07  3.5515E+07 -2.7656E+07 -4.5112E-04  5.9703E-04 -1.0272E-03  
         15   4        -3.2558E+07  1.2569E+07 -1.5474E+07 -5.1898E-04  3.1910E-04 -5.7475E-04  
         15   5        -2.6079E+07  1.9128E+07 -1.9663E+07 -4.5454E-04  3.8502E-04 -7.3034E-04  
         15   6        -2.2009E+07  2.4612E+07 -2.3162E+07 -4.1989E-04  4.4592E-04 -8.6031E-04  
         15   7        -3.5406E+07  6.4417E+06 -1.1706E+07 -5.3341E-04  2.4377E-04 -4.3478E-04  
         15   8        -2.7160E+07  1.1872E+07 -1.5470E+07 -4.3887E-04  2.8599E-04 -5.7459E-04  
         15   9        -2.1411E+07  1.6280E+07 -1.8575E+07 -3.7565E-04  3.2433E-04 -6.8994E-04  
         16   1        -3.7344E+07  3.2824E+06 -9.2692E+06 -5.4755E-04  2.0694E-04 -3.4429E-04  
         16   2        -2.7722E+07  8.3237E+06 -1.2363E+07 -4.3171E-04  2.3772E-04 -4.5919E-04  
         16   3        -2.1296E+07  1.2328E+07 -1.5090E+07 -3.5706E-04  2.6738E-04 -5.6047E-04  
         16   4        -4.0558E+07 -1.0370E+06 -5.1642E+06 -5.7495E-04  1.5901E-04 -1.9181E-04  
         16   5        -2.9802E+07  3.6762E+06 -7.0202E+06 -4.4149E-04  1.8024E-04 -2.6075E-04  
         16   6        -2.2302E+07  7.3657E+06 -8.5815E+06 -3.5016E-04  2.0080E-04 -3.1874E-04  
         16   7        -4.0388E+07 -1.9859E+06 -1.2147E+06 -5.6846E-04  1.4472E-04 -4.5118E-05  
         16   8        -2.9146E+07  2.1489E+06 -1.7454E+06 -4.2557E-04  1.5561E-04 -6.4831E-05  
         16   9        -2.1182E+07  5.2889E+06 -2.0584E+06 -3.2527E-04  1.6634E-04 -7.6456E-05  
         17   1         3.7221E+07  1.7217E+08 -2.5536E+05 -2.0612E-04  2.3000E-03 -9.4846E-06  
         17   2         3.6956E+07  1.6189E+08  1.0458E+05 -1.6587E-04  2.1543E-03  3.8844E-06  
         17   3         3.7369E+07  1.5385E+08  3.6221E+05 -1.2554E-04  2.0378E-03  1.3453E-05  
         17   4         3.6554E+07  1.7264E+08 -1.5860E+06 -2.1768E-04  2.3096E-03 -5.8909E-05  
         17   5         3.5994E+07  1.6260E+08 -1.9375E+05 -1.8266E-04  2.1686E-03 -7.1966E-06  
         17   6         3.6124E+07  1.5480E+08  1.0456E+06 -1.4735E-04  2.0566E-03  3.8836E-05  
         17   7         3.3304E+07  1.6963E+08 -2.8694E+06 -2.5120E-04  2.2805E-03 -1.0658E-04  
         17   8         3.2620E+07  1.6029E+08 -4.9038E+05 -2.2097E-04  2.1501E-03 -1.8214E-05  
         17   9         3.2628E+07  1.5316E+08  1.6871E+06 -1.9031E-04  2.0482E-03  6.2663E-05  
         18   1         3.1065E+07  1.6816E+08 -3.7392E+06 -2.7689E-04  2.2691E-03 -1.3888E-04  
         18   2         3.0188E+07  1.5953E+08 -8.0868E+05 -2.5243E-04  2.1496E-03 -3.0037E-05  
         18   3         2.9998E+07  1.5280E+08  1.7758E+06 -2.2631E-04  2.0543E-03  6.5957E-05  
         18   4         2.7043E+07  1.6556E+08 -6.1409E+06 -3.2323E-04  2.2493E-03 -2.2809E-04  
         18   5         2.5595E+07  1.5798E+08 -2.5804E+06 -3.1139E-04  2.1471E-03 -9.5842E-05  
         18   6         2.4857E+07  1.5225E+08  5.9781E+05 -2.9741E-04  2.0685E-03  2.2204E-05  
         18   7         2.0909E+07  1.5993E+08 -8.3759E+06 -3.8671E-04  2.1951E-03 -3.1111E-04  
         18   8         1.9074E+07  1.5375E+08 -4.2993E+06 -3.8644E-04  2.1147E-03 -1.5969E-04  
         18   9         1.7959E+07  1.4937E+08 -6.3630E+05 -3.8362E-04  2.0569E-03 -2.3634E-05  
         19   1         1.7341E+07  1.5664E+08 -1.0032E+07 -4.2360E-04  2.1634E-03 -3.7264E-04  
         19   2         1.5310E+07  1.5161E+08 -5.8179E+06 -4.3104E-04  2.1002E-03 -2.1609E-04  
         19   3         1.3926E+07  1.4787E+08 -2.0157E+06 -4.3480E-04  2.0528E-03 -7.4870E-05  
         19   4         1.1765E+07  1.5019E+08 -1.3683E+07 -4.7559E-04  2.0951E-03 -5.0821E-04  
         19   5         9.2504E+06  1.4656E+08 -9.4716E+06 -4.9598E-04  2.0541E-03 -3.5180E-04  
         19   6         7.4022E+06  1.4419E+08 -5.6862E+06 -5.1219E-04  2.0281E-03 -2.1120E-04  
         19   7         4.9037E+06  1.4157E+08 -1.6994E+07 -5.3667E-04  2.0014E-03 -6.3120E-04  
         19   8         2.0885E+06  1.3955E+08 -1.2914E+07 -5.6823E-04  1.9846E-03 -4.7965E-04  
         19   9        -5.1983E+04  1.3870E+08 -9.2664E+06 -5.9519E-04  1.9817E-03 -3.4418E-04  
         20   1         1.3545E+06  1.3616E+08 -1.9176E+07 -5.6420E-04  1.9393E-03 -7.1225E-04  
         20   2        -1.4059E+06  1.3533E+08 -1.5395E+07 -6.0005E-04  1.9392E-03 -5.7180E-04  
         20   3        -3.7045E+06  1.3513E+08 -1.1896E+07 -6.3205E-04  1.9463E-03 -4.4186E-04  
         20   4        -3.7052E+06  1.2561E+08 -2.3063E+07 -5.9125E-04  1.8103E-03 -8.5661E-04  
         20   5        -6.4959E+06  1.2605E+08 -1.9818E+07 -6.3299E-04  1.8285E-03 -7.3612E-04  
         20   6        -8.8227E+06  1.2707E+08 -1.6850E+07 -6.7061E-04  1.8530E-03 -6.2585E-04  
         20   7        -9.0591E+06  1.1412E+08 -2.6413E+07 -6.1851E-04  1.6691E-03 -9.8104E-04  
         20   8        -1.1742E+07  1.1584E+08 -2.3789E+07 -6.6421E-04  1.7052E-03 -8.8357E-04  
         20   9        -1.3966E+07  1.1809E+08 -2.1428E+07 -7.0559E-04  1.7468E-03 -7.9590E-04  
         21   1        -1.1480E+07  1.0685E+08 -2.8210E+07 -6.2192E-04  1.5756E-03 -1.0478E-03  
         21   2        -1.3706E+07  1.0945E+08 -2.6118E+07 -6.6488E-04  1.6223E-03 -9.7011E-04  
         21   3        -1.5856E+07  1.1215E+08 -2.4074E+07 -7.0717E-04  1.6701E-03 -8.9419E-04  
         21   4        -1.4715E+07  9.3269E+07 -3.0556E+07 -6.0994E-04  1.3955E-03 -1.1349E-03  
         21   5        -1.6378E+07  9.6673E+07 -2.9177E+07 -6.4828E-04  1.4512E-03 -1.0837E-03  
         21   6        -1.7983E+07  1.0013E+08 -2.7828E+07 -6.8604E-04  1.5075E-03 -1.0336E-03  
         21   7        -1.7286E+07  8.0200E+07 -3.2217E+07 -5.9065E-04  1.2198E-03 -1.1966E-03  
         21   8        -1.8350E+07  8.4275E+07 -3.1560E+07 -6.2333E-04  1.2826E-03 -1.1722E-03  
         21   9        -1.9377E+07  8.8368E+07 -3.0916E+07 -6.5553E-04  1.3454E-03 -1.1483E-03  
         22   1        -1.8209E+07  7.2168E+07 -3.2542E+07 -5.6942E-04  1.1090E-03 -1.2087E-03  
         22   2        -1.8485E+07  7.6692E+07 -3.2348E+07 -5.9275E-04  1.1748E-03 -1.2015E-03  
         22   3        -1.9217E+07  8.0981E+07 -3.1999E+07 -6.2159E-04  1.2392E-03 -1.1885E-03  
         22   4        -1.9588E+07  5.8092E+07 -3.1774E+07 -5.2880E-04  9.1384E-04 -1.1802E-03  
         22   5        -1.8890E+07  6.2920E+07 -3.2065E+07 -5.3952E-04  9.7982E-04 -1.1910E-03  
         22   6        -1.8683E+07  6.7488E+07 -3.2190E+07 -5.5613E-04  1.0442E-03 -1.1956E-03  
         22   7        -1.9522E+07  4.5968E+07 -3.0308E+07 -4.7589E-04  7.4035E-04 -1.1257E-03  
         22   8        -1.7963E+07  5.0890E+07 -3.1037E+07 -4.7472E-04  8.0398E-04 -1.1528E-03  
         22   9        -1.6922E+07  5.5538E+07 -3.1589E+07 -4.7977E-04  8.6593E-04 -1.1733E-03  
         23   1        -1.9377E+07  3.8968E+07 -2.8533E+07 -4.4382E-04  6.3973E-04 -1.0598E-03  
         23   2        -1.6976E+07  4.3996E+07 -2.9426E+07 -4.3107E-04  7.0126E-04 -1.0930E-03  
         23   3        -1.5563E+07  4.8648E+07 -3.0110E+07 -4.3082E-04  7.6167E-04 -1.1184E-03  
         23   4        -1.9880E+07  2.7731E+07 -2.4232E+07 -4.0285E-04  4.8136E-04 -9.0005E-04  
         23   5        -1.6519E+07  3.2793E+07 -2.5174E+07 -3.7653E-04  5.3927E-04 -9.3502E-04  
         23   6        -1.4182E+07  3.7466E+07 -2.5906E+07 -3.6317E-04  5.9601E-04 -9.6224E-04  
         23   7        -1.8409E+07  1.9616E+07 -1.9406E+07 -3.4705E-04  3.5912E-04 -7.2080E-04  
         23   8        -1.4347E+07  2.4475E+07 -2.0335E+07 -3.0985E-04  4.1113E-04 -7.5529E-04  
         23   9        -1.1330E+07  2.8947E+07 -2.1056E+07 -2.8592E-04  4.6209E-04 -7.8210E-04  
         24   1        -1.8022E+07  1.5519E+07 -1.5792E+07 -3.2397E-04  2.9894E-04 -5.8657E-04  
         24   2        -1.3419E+07  2.0350E+07 -1.6564E+07 -2.7891E-04  3.4822E-04 -6.1523E-04  
         24   3        -1.0147E+07  2.4771E+07 -1.7233E+07 -2.5112E-04  3.9735E-04 -6.4009E-04  
         24   4        -1.8795E+07  1.0057E+07 -9.0797E+06 -3.1160E-04  2.2422E-04 -3.3724E-04  
         24   5        -1.3684E+07  1.4935E+07 -9.5522E+06 -2.5949E-04  2.7201E-04 -3.5480E-04  
         24   6        -9.9246E+06  1.9397E+07 -9.9328E+06 -2.2491E-04  3.1963E-04 -3.6893E-04  
         24   7        -1.7331E+07  8.3730E+06 -2.1713E+06 -2.8347E-04  1.9389E-04 -8.0649E-05  
         24   8        -1.2062E+07  1.3061E+07 -2.3176E+06 -2.2830E-04  2.3829E-04 -8.6084E-05  
         24   9        -8.1475E+06  1.7339E+07 -2.3834E+06 -1.9071E-04  2.8262E-04 -8.8526E-05  
         25   1         3.6728E+07  1.4973E+08  4.7302E+05 -1.1703E-04  1.9816E-03  1.7569E-05  
         25   2         3.5613E+07  1.4360E+08  6.2336E+05 -1.0668E-04  1.8988E-03  2.3153E-05  
         25   3         3.4847E+07  1.3863E+08  7.3116E+05 -9.6305E-05  1.8311E-03  2.7158E-05  
         25   4         3.5685E+07  1.5085E+08  1.5373E+06 -1.3671E-04  2.0021E-03  5.7100E-05  
         25   5         3.4461E+07  1.4480E+08  2.1358E+06 -1.2826E-04  1.9208E-03  7.9331E-05  
         25   6         3.3588E+07  1.3990E+08  2.6751E+06 -1.1974E-04  1.8546E-03  9.9361E-05  
         25   7         3.1937E+07  1.4940E+08  2.4614E+06 -1.8405E-04  1.9974E-03  9.1422E-05  
         25   8         3.0758E+07  1.4371E+08  3.4923E+06 -1.7651E-04  1.9212E-03  1.2971E-04  
         25   9         2.9925E+07  1.3917E+08  4.4474E+06 -1.6893E-04  1.8599E-03  1.6519E-04  
         26   1         2.9233E+07  1.4921E+08  2.7279E+06 -2.2187E-04  2.0063E-03  1.0132E-04  
         26   2         2.8043E+07  1.4386E+08  4.0010E+06 -2.1592E-04  1.9349E-03  1.4861E-04  
         26   3         2.7188E+07  1.3951E+08  5.1384E+06 -2.0948E-04  1.8764E-03  1.9085E-04  
         26   4         2.4195E+07  1.4919E+08  1.8785E+06 -2.9376E-04  2.0276E-03  6.9774E-05  
         26   5         2.2876E+07  1.4431E+08  3.4657E+06 -2.9169E-04  1.9636E-03  1.2872E-04  
         26   6         2.1893E+07  1.4043E+08  4.9013E+06 -2.8909E-04  1.9123E-03  1.8205E-04  
         26   7         1.7111E+07  1.4675E+08  7.3237E+05 -3.8447E-04  2.0230E-03  2.7202E-05  
         26   8         1.5805E+07  1.4258E+08  2.5926E+06 -3.8527E-04  1.9691E-03  9.6295E-05  
         26   9         1.4828E+07  1.3939E+08  4.2862E+06 -3.8557E-04  1.9278E-03  1.5920E-04  
         27   1         1.2980E+07  1.4553E+08 -5.7802E+05 -4.3829E-04  2.0234E-03 -2.1469E-05  
         27   2         1.1701E+07  1.4193E+08  1.3781E+06 -4.4112E-04  1.9774E-03  5.1185E-05  
         27   3         1.0708E+07  1.3908E+08  3.1688E+06 -4.4309E-04  1.9409E-03  1.1770E-04  
         27   4         6.4971E+06  1.4260E+08 -4.1003E+06 -5.1832E-04  2.0093E-03 -1.5230E-04  
         27   5         5.1692E+06  1.3972E+08 -2.0493E+06 -5.2495E-04  1.9738E-03 -7.6118E-05  
         27   6         4.1251E+06  1.3757E+08 -1.7747E+05 -5.3066E-04  1.9476E-03 -6.5919E-06  
         27   7        -9.5489E+05  1.3763E+08 -7.7829E+06 -6.0350E-04  1.9703E-03 -2.8908E-04  
         27   8        -2.2222E+06  1.3563E+08 -5.6875E+06 -6.1302E-04  1.9471E-03 -2.1125E-04  
         27   9        -3.2132E+06  1.3433E+08 -3.7834E+06 -6.2160E-04  1.9328E-03 -1.4053E-04  
         28   1        -4.6624E+06  1.3436E+08 -1.0463E+07 -6.4244E-04  1.9394E-03 -3.8863E-04  
         28   2        -5.7983E+06  1.3300E+08 -8.4345E+06 -6.5281E-04  1.9248E-03 -3.1328E-04  
         28   3        -6.7635E+06  1.3209E+08 -6.5335E+06 -6.6270E-04  1.9159E-03 -2.4267E-04  
         28   4        -9.7147E+06  1.2707E+08 -1.5489E+07 -6.8336E-04  1.8569E-03 -5.7531E-04  
         28   5        -1.0730E+07  1.2648E+08 -1.3570E+07 -6.9534E-04  1.8528E-03 -5.0402E-04  
         28   6        -1.1578E+07  1.2632E+08 -1.1788E+07 -7.0678E-04  1.8542E-03 -4.3784E-04  
         28   7        -1.4614E+07  1.1856E+08 -2.0267E+07 -7.1688E-04  1.7563E-03 -7.5276E-04  
         28   8        -1.5452E+07  1.1879E+08 -1.8499E+07 -7.2986E-04  1.7633E-03 -6.8710E-04  
         28   9        -1.6129E+07  1.1943E+08 -1.6877E+07 -7.4224E-04  1.7752E-03 -6.2688E-04  
         29   1        -1.6469E+07  1.1286E+08 -2.3037E+07 -7.1895E-04  1.6828E-03 -8.5565E-04  
         29   2        -1.7042E+07  1.1366E+08 -2.1441E+07 -7.3058E-04  1.6968E-03 -7.9638E-04  
         29   3        -1.7631E+07  1.1466E+08 -1.9898E+07 -7.4327E-04  1.7136E-03 -7.3908E-04  
         29   4        -1.8438E+07  1.0144E+08 -2.7019E+07 -6.9813E-04  1.5281E-03 -1.0036E-03  
         29   5        -1.8701E+07  1.0291E+08 -2.5641E+07 -7.0820E-04  1.5503E-03 -9.5238E-04  
         29   6        -1.8984E+07  1.0455E+08 -2.4321E+07 -7.1927E-04  1.5750E-03 -9.0335E-04  
         29   7        -1.9402E+07  9.0036E+07 -3.0280E+07 -6.6304E-04  1.3694E-03 -1.1247E-03  
         29   8        -1.9369E+07  9.2132E+07 -2.9143E+07 -6.7155E-04  1.3992E-03 -1.0825E-03  
         29   9        -1.9359E+07  9.4364E+07 -2.8068E+07 -6.8098E-04  1.4310E-03 -1.0425E-03  
         30   1        -1.9122E+07  8.2774E+07 -3.1488E+07 -6.2792E-04  1.2644E-03 -1.1696E-03  
         30   2        -1.8731E+07  8.5283E+07 -3.0534E+07 -6.3309E-04  1.2986E-03 -1.1341E-03  
         30   3        -1.8585E+07  8.7797E+07 -2.9568E+07 -6.4176E-04  1.3339E-03 -1.0982E-03  
         30   4        -1.8345E+07  6.9602E+07 -3.1937E+07 -5.6036E-04  1.0729E-03 -1.1862E-03  
         30   5        -1.7530E+07  7.2602E+07 -3.1192E+07 -5.6158E-04  1.1123E-03 -1.1586E-03  
         30   6        -1.6964E+07  7.5579E+07 -3.0434E+07 -5.6625E-04  1.1524E-03 -1.1304E-03  
         30   7        -1.6110E+07  5.7929E+07 -3.1402E+07 -4.7841E-04  8.9660E-04 -1.1664E-03  
         30   8        -1.4965E+07  6.1292E+07 -3.0873E+07 -4.7646E-04  9.3974E-04 -1.1467E-03  
         30   9        -1.4068E+07  6.4610E+07 -3.0328E+07 -4.7787E-04  9.8329E-04 -1.1265E-03  
         31   1        -1.4602E+07  5.1078E+07 -2.9993E+07 -4.2750E-04  7.9226E-04 -1.1140E-03  
         31   2        -1.3109E+07  5.4683E+07 -2.9582E+07 -4.2163E-04  8.3737E-04 -1.0988E-03  
         31   3        -1.2072E+07  5.8180E+07 -2.9136E+07 -4.2180E-04  8.8288E-04 -1.0822E-03  
         31   4        -1.2984E+07  3.9947E+07 -2.5958E+07 -3.5668E-04  6.2631E-04 -9.6415E-04  
         31   5        -1.1095E+07  4.3866E+07 -2.5677E+07 -3.4650E-04  6.7421E-04 -9.5372E-04  
         31   6        -9.6683E+06  4.7654E+07 -2.5356E+07 -3.4235E-04  7.2220E-04 -9.4178E-04  
         31   7        -9.7779E+06  3.1665E+07 -2.1077E+07 -2.7539E-04  4.9426E-04 -7.8285E-04  
         31   8        -7.6577E+06  3.5718E+07 -2.0922E+07 -2.6247E-04  5.4308E-04 -7.7711E-04  
         31   9        -5.9951E+06  3.9628E+07 -2.0721E+07 -2.5548E-04  5.9180E-04 -7.6964E-04  
         32   1        -8.4939E+06  2.7489E+07 -1.7256E+07 -2.3915E-04  4.2911E-04 -6.4094E-04  
         32   2        -6.1591E+06  3.1647E+07 -1.7140E+07 -2.2362E-04  4.7850E-04 -6.3664E-04  
         32   3        -4.4077E+06  3.5640E+07 -1.7012E+07 -2.1571E-04  5.2804E-04 -6.3188E-04  
         32   4        -8.1690E+06  2.1985E+07 -9.9929E+06 -2.1092E-04  3.4908E-04 -3.7117E-04  
         32   5        -5.6105E+06  2.6311E+07 -9.9355E+06 -1.9291E-04  3.9992E-04 -3.6903E-04  
         32   6        -3.6407E+06  3.0462E+07 -9.8578E+06 -1.8256E-04  4.5077E-04 -3.6615E-04  
         32   7        -6.2656E+06  2.0138E+07 -2.3964E+06 -1.7581E-04  3.1454E-04 -8.9010E-05  
         32   8        -3.6870E+06  2.4430E+07 -2.3948E+06 -1.5737E-04  3.6480E-04 -8.8949E-05  
         32   9        -1.6923E+06  2.8544E+07 -2.3645E+06 -1.4651E-04  4.1503E-04 -8.7825E-05  
         33   1         3.4042E+07  1.3605E+08  7.7581E+05 -9.6769E-05  1.7977E-03  2.8816E-05  
         33   2         3.2715E+07  1.3216E+08  8.3149E+05 -9.9045E-05  1.7478E-03  3.0884E-05  
         33   3         3.1580E+07  1.2891E+08  8.6982E+05 -1.0131E-04  1.7062E-03  3.2308E-05  
         33   4         3.2900E+07  1.3739E+08  2.8802E+06 -1.1882E-04  1.8218E-03  1.0698E-04  
         33   5         3.1547E+07  1.3351E+08  3.1112E+06 -1.2152E-04  1.7721E-03  1.1556E-04  
         33   6         3.0385E+07  1.3027E+08  3.3213E+06 -1.2422E-04  1.7308E-03  1.2336E-04  
         33   7         2.9164E+07  1.3676E+08  4.7663E+06 -1.6948E-04  1.8287E-03  1.7703E-04  
         33   8         2.7918E+07  1.3307E+08  5.1699E+06 -1.7149E-04  1.7814E-03  1.9202E-04  
         33   9         2.6855E+07  1.3002E+08  5.5488E+06 -1.7360E-04  1.7424E-03  2.0610E-04  
         34   1         2.6429E+07  1.3718E+08  5.5356E+06 -2.1036E-04  1.8465E-03  2.0561E-04  
         34   2         2.5240E+07  1.3365E+08  6.0401E+06 -2.1221E-04  1.8011E-03  2.2435E-04  
         34   3         2.4224E+07  1.3068E+08  6.4955E+06 -2.1402E-04  1.7631E-03  2.4126E-04  
         34   4         2.1260E+07  1.3835E+08  5.4648E+06 -2.8923E-04  1.8854E-03  2.0298E-04  
         34   5         2.0126E+07  1.3503E+08  6.1274E+06 -2.9119E-04  1.8428E-03  2.2759E-04  
         34   6         1.9160E+07  1.3228E+08  6.7340E+06 -2.9321E-04  1.8076E-03  2.5012E-04  
         34   7         1.4202E+07  1.3754E+08  4.9010E+06 -3.8657E-04  1.9040E-03  1.8204E-04  
         34   8         1.3234E+07  1.3459E+08  5.7130E+06 -3.8775E-04  1.8660E-03  2.1220E-04  
         34   9         1.2422E+07  1.3221E+08  6.4615E+06 -3.8914E-04  1.8355E-03  2.4000E-04  
         35   1         1.0092E+07  1.3737E+08  3.8332E+06 -4.4458E-04  1.9192E-03  1.4238E-04  
         35   2         9.2308E+06  1.3470E+08  4.7172E+06 -4.4543E-04  1.8848E-03  1.7521E-04  
         35   3         8.4983E+06  1.3249E+08  5.5384E+06 -4.4642E-04  1.8563E-03  2.0571E-04  
         35   4         3.6220E+06  1.3626E+08  6.0893E+05 -5.3222E-04  1.9310E-03  2.2617E-05  
         35   5         2.8856E+06  1.3397E+08  1.6139E+06 -5.3295E-04  1.9015E-03  5.9945E-05  
         35   6         2.2696E+06  1.3214E+08  2.5444E+06 -5.3391E-04  1.8781E-03  9.4505E-05  
         35   7        -3.6129E+06  1.3331E+08 -2.9974E+06 -6.2296E-04  1.9200E-03 -1.1133E-04  
         35   8        -4.1546E+06  1.3153E+08 -1.8871E+06 -6.2306E-04  1.8968E-03 -7.0093E-05  
         35   9        -4.5871E+06  1.3020E+08 -8.6317E+05 -6.2352E-04  1.8796E-03 -3.2061E-05  
         36   1        -7.1390E+06  1.3125E+08 -5.7342E+06 -6.6450E-04  1.9057E-03 -2.1298E-04  
         36   2        -7.5372E+06  1.2983E+08 -4.5929E+06 -6.6409E-04  1.8870E-03 -1.7059E-04  
         36   3        -7.8817E+06  1.2874E+08 -3.5111E+06 -6.6432E-04  1.8729E-03 -1.3041E-04  
         36   4        -1.1854E+07  1.2595E+08 -1.0948E+07 -7.0914E-04  1.8501E-03 -4.0665E-04  
         36   5        -1.2084E+07  1.2504E+08 -9.7423E+06 -7.0850E-04  1.8380E-03 -3.6186E-04  
         36   6        -1.2265E+07  1.2444E+08 -8.6098E+06 -7.0851E-04  1.8302E-03 -3.1979E-04  
         36   7        -1.6223E+07  1.1938E+08 -1.6065E+07 -7.4340E-04  1.7750E-03 -5.9669E-04  
         36   8        -1.6265E+07  1.1903E+08 -1.4816E+07 -7.4248E-04  1.7701E-03 -5.5033E-04  
         36   9        -1.6263E+07  1.1897E+08 -1.3655E+07 -7.4222E-04  1.7693E-03 -5.0718E-04  
         37   1        -1.7684E+07  1.1480E+08 -1.9105E+07 -7.4463E-04  1.7158E-03 -7.0961E-04  
         37   2        -1.7566E+07  1.1483E+08 -1.7871E+07 -7.4307E-04  1.7157E-03 -6.6376E-04  
         37   3        -1.7489E+07  1.1505E+08 -1.6683E+07 -7.4294E-04  1.7186E-03 -6.1965E-04  
         37   4        -1.8941E+07  1.0513E+08 -2.3576E+07 -7.2116E-04  1.5831E-03 -8.7568E-04  
         37   5        -1.8640E+07  1.0572E+08 -2.2348E+07 -7.1935E-04  1.5901E-03 -8.3006E-04  
         37   6        -1.8380E+07  1.0647E+08 -2.1178E+07 -7.1888E-04  1.5998E-03 -7.8660E-04  
         37   7        -1.9102E+07  9.5263E+07 -2.7356E+07 -6.8116E-04  1.4428E-03 -1.0161E-03  
         37   8        -1.8650E+07  9.6383E+07 -2.6161E+07 -6.7950E-04  1.4568E-03 -9.7169E-04  
         37   9        -1.8236E+07  9.7656E+07 -2.5033E+07 -6.7904E-04  1.4732E-03 -9.2980E-04  
         38   1        -1.8277E+07  8.8851E+07 -2.8897E+07 -6.4189E-04  1.3476E-03 -1.0733E-03  
         38   2        -1.7672E+07  9.0322E+07 -2.7757E+07 -6.3955E-04  1.3661E-03 -1.0310E-03  
         38   3        -1.7207E+07  9.1872E+07 -2.6650E+07 -6.3955E-04  1.3862E-03 -9.8985E-04  
         38   4        -1.6560E+07  7.6969E+07 -2.9877E+07 -5.6644E-04  1.1705E-03 -1.1097E-03  
         38   5        -1.5784E+07  7.8953E+07 -2.8819E+07 -5.6386E-04  1.1955E-03 -1.0704E-03  
         38   6        -1.5143E+07  8.0991E+07 -2.7797E+07 -5.6344E-04  1.2219E-03 -1.0325E-03  
         38   7        -1.3475E+07  6.6285E+07 -2.9807E+07 -4.7658E-04  1.0047E-03 -1.1071E-03  
         38   8        -1.2604E+07  6.8698E+07 -2.8856E+07 -4.7448E-04  1.0354E-03 -1.0718E-03  
         38   9        -1.1859E+07  7.1143E+07 -2.7943E+07 -4.7432E-04  1.0672E-03 -1.0379E-03  
         39   1        -1.1432E+07  5.9966E+07 -2.8666E+07 -4.2031E-04  9.0565E-04 -1.0647E-03  
         39   2        -1.0441E+07  6.2644E+07 -2.7801E+07 -4.1764E-04  9.3967E-04 -1.0326E-03  
         39   3        -9.6693E+06  6.5314E+07 -2.6961E+07 -4.1805E-04  9.7450E-04 -1.0014E-03  
         39   4        -8.9446E+06  4.9620E+07 -2.5021E+07 -3.4044E-04  7.4719E-04 -9.2937E-04  
         39   5        -7.8153E+06  5.2687E+07 -2.4305E+07 -3.3745E-04  7.8617E-04 -9.0277E-04  
         39   6        -6.9000E+06  5.5723E+07 -2.3607E+07 -3.3738E-04  8.2561E-04 -8.7685E-04  
         39   7        -5.1524E+06  4.1817E+07 -2.0438E+07 -2.5282E-04  6.1947E-04 -7.5911E-04  
         39   8        -3.9932E+06  4.5134E+07 -1.9889E+07 -2.5048E-04  6.6188E-04 -7.3872E-04  
         39   9        -3.0379E+06  4.8405E+07 -1.9350E+07 -2.5085E-04  7.0452E-04 -7.1872E-04  
         40   1        -3.5363E+06  3.7887E+07 -1.6782E+07 -2.1289E-04  5.5640E-04 -6.2335E-04  
         40   2        -2.3111E+06  4.1346E+07 -1.6339E+07 -2.1021E-04  6.0056E-04 -6.0689E-04  
         40   3        -1.3454E+06  4.4743E+07 -1.5914E+07 -2.1098E-04  6.4495E-04 -5.9109E-04  
         40   4        -2.7279E+06  3.2724E+07 -9.7476E+06 -1.7922E-04  4.7918E-04 -3.6205E-04  
         40   5        -1.4112E+06  3.6381E+07 -9.4944E+06 -1.7608E-04  5.2577E-04 -3.5265E-04  
         40   6        -3.5383E+05  3.9963E+07 -9.2465E+06 -1.7632E-04  5.7242E-04 -3.4344E-04  
         40   7        -7.4768E+05  3.0930E+07 -2.3377E+06 -1.4324E-04  4.4507E-04 -8.6829E-05  
         40   8         5.3508E+05  3.4615E+07 -2.2814E+06 -1.4071E-04  4.9221E-04 -8.4739E-05  
         40   9         1.5645E+06  3.8224E+07 -2.2171E+06 -1.4147E-04  5.3935E-04 -8.2350E-05  
         41   1         3.0782E+07  1.2721E+08  8.8313E+05 -1.0544E-04  1.6853E-03  3.2802E-05  
         41   2         2.9485E+07  1.2461E+08  8.9441E+05 -1.1284E-04  1.6538E-03  3.3221E-05  
         41   3         2.8299E+07  1.2238E+08  8.9943E+05 -1.2023E-04  1.6271E-03  3.3407E-05  
         41   4         2.9657E+07  1.2859E+08  3.3895E+06 -1.2742E-04  1.7099E-03  1.2590E-04  
         41   5         2.8371E+07  1.2597E+08  3.4453E+06 -1.3457E-04  1.6780E-03  1.2797E-04  
         41   6         2.7194E+07  1.2372E+08  3.4965E+06 -1.4176E-04  1.6510E-03  1.2987E-04  
         41   7         2.6136E+07  1.2840E+08  5.6501E+06 -1.7691E-04  1.7223E-03  2.0986E-04  
         41   8         2.4972E+07  1.2589E+08  5.7535E+06 -1.8278E-04  1.6914E-03  2.1370E-04  
         41   9         2.3910E+07  1.2375E+08  5.8534E+06 -1.8877E-04  1.6654E-03  2.1741E-04  
         42   1         2.3538E+07  1.2910E+08  6.6272E+06 -2.1702E-04  1.7434E-03  2.4615E-04  
         42   2         2.2455E+07  1.2665E+08  6.7634E+06 -2.2201E-04  1.7131E-03  2.5121E-04  
         42   3         2.1466E+07  1.2455E+08  6.8873E+06 -2.2712E-04  1.6872E-03  2.5581E-04  
         42   4         1.8595E+07  1.3080E+08  6.9500E+06 -2.9494E-04  1.7889E-03  2.5814E-04  
         42   5         1.7639E+07  1.2843E+08  7.1645E+06 -2.9844E-04  1.7592E-03  2.6611E-04  
         42   6         1.6771E+07  1.2641E+08  7.3637E+06 -3.0219E-04  1.7340E-03  2.7351E-04  
         42   7         1.1946E+07  1.3085E+08  6.7077E+06 -3.9012E-04  1.8181E-03  2.4914E-04  
         42   8         1.1206E+07  1.2868E+08  7.0061E+06 -3.9139E-04  1.7902E-03  2.6023E-04  
         42   9         1.0540E+07  1.2686E+08  7.2853E+06 -3.9309E-04  1.7670E-03  2.7060E-04  
         43   1         8.0747E+06  1.3121E+08  5.8222E+06 -4.4698E-04  1.8398E-03  2.1625E-04  
         43   2         7.4660E+06  1.2918E+08  6.1754E+06 -4.4695E-04  1.8134E-03  2.2937E-04  
         43   3         6.9137E+06  1.2744E+08  6.5099E+06 -4.4740E-04  1.7909E-03  2.4180E-04  
         43   4         1.9764E+06  1.3107E+08  2.9281E+06 -5.3350E-04  1.8640E-03  1.0876E-04  
         43   5         1.5531E+06  1.2924E+08  3.4024E+06 -5.3171E-04  1.8397E-03  1.2638E-04  
         43   6         1.1773E+06  1.2772E+08  3.8487E+06 -5.3054E-04  1.8195E-03  1.4295E-04  
         43   7        -4.7423E+06  1.2930E+08 -4.3920E+05 -6.2190E-04  1.8675E-03 -1.6313E-05  
         43   8        -4.9328E+06  1.2777E+08  1.5669E+05 -6.1807E-04  1.8465E-03  5.8198E-06  
         43   9        -5.0871E+06  1.2654E+08  7.1435E+05 -6.1501E-04  1.8296E-03  2.6533E-05  
         44   1        -7.9843E+06  1.2796E+08 -3.0481E+06 -6.6245E-04  1.8622E-03 -1.1321E-04  
         44   2        -8.0372E+06  1.2664E+08 -2.3845E+06 -6.5757E-04  1.8436E-03 -8.8568E-05  
         44   3        -8.0844E+06  1.2557E+08 -1.7488E+06 -6.5364E-04  1.8285E-03 -6.4954E-05  
         44   4        -1.2265E+07  1.2395E+08 -8.0640E+06 -7.0643E-04  1.8233E-03 -2.9952E-04  
         44   5        -1.2146E+07  1.2298E+08 -7.2682E+06 -7.0058E-04  1.8089E-03 -2.6996E-04  
         44   6        -1.2026E+07  1.2225E+08 -6.5136E+06 -6.9571E-04  1.7979E-03 -2.4193E-04  
         44   7        -1.6119E+07  1.1872E+08 -1.3064E+07 -7.3909E-04  1.7651E-03 -4.8523E-04  
         44   8        -1.5826E+07  1.1815E+08 -1.2148E+07 -7.3246E-04  1.7557E-03 -4.5120E-04  
         44   9        -1.5536E+07  1.1781E+08 -1.1286E+07 -7.2684E-04  1.7496E-03 -4.1919E-04  
         45   1        -1.7309E+07  1.1495E+08 -1.6065E+07 -7.3990E-04  1.7163E-03 -5.9672E-04  
         45   2        -1.6911E+07  1.1465E+08 -1.5097E+07 -7.3295E-04  1.7104E-03 -5.6076E-04  
         45   3        -1.6557E+07  1.1453E+08 -1.4167E+07 -7.2736E-04  1.7071E-03 -5.2622E-04  
         45   4        -1.8139E+07  1.0670E+08 -2.0531E+07 -7.1643E-04  1.6021E-03 -7.6258E-04  
         45   5        -1.7628E+07  1.0686E+08 -1.9479E+07 -7.0981E-04  1.6021E-03 -7.2352E-04  
         45   6        -1.7161E+07  1.0717E+08 -1.8478E+07 -7.0447E-04  1.6046E-03 -6.8631E-04  
         45   7        -1.7885E+07  9.8154E+07 -2.4359E+07 -6.7617E-04  1.4789E-03 -9.0476E-04  
         45   8        -1.7300E+07  9.8764E+07 -2.3249E+07 -6.7041E-04  1.4851E-03 -8.6354E-04  
         45   9        -1.6752E+07  9.9511E+07 -2.2200E+07 -6.6580E-04  1.4934E-03 -8.2455E-04  
         46   1        -1.6842E+07  9.2523E+07 -2.5978E+07 -6.3713E-04  1.3939E-03 -9.6490E-04  
         46   2        -1.6199E+07  9.3427E+07 -2.4865E+07 -6.3182E-04  1.4041E-03 -9.2357E-04  
         46   3        -1.5642E+07  9.4426E+07 -2.3798E+07 -6.2813E-04  1.4160E-03 -8.8391E-04  
         46   4        -1.4751E+07  8.1954E+07 -2.7170E+07 -5.6196E-04  1.2340E-03 -1.0092E-03  
         46   5        -1.4060E+07  8.3333E+07 -2.6078E+07 -5.5800E-04  1.2507E-03 -9.6861E-04  
         46   6        -1.3447E+07  8.4786E+07 -2.5035E+07 -5.5547E-04  1.2689E-03 -9.2988E-04  
         46   7        -1.1410E+07  7.2366E+07 -2.7335E+07 -4.7314E-04  1.0827E-03 -1.0153E-03  
         46   8        -1.0733E+07  7.4162E+07 -2.6295E+07 -4.7117E-04  1.1055E-03 -9.7668E-04  
         46   9        -1.0123E+07  7.6012E+07 -2.5307E+07 -4.7039E-04  1.1293E-03 -9.3999E-04  
         47   1        -9.2209E+06  6.6666E+07 -2.6391E+07 -4.1744E-04  9.9189E-04 -9.8023E-04  
         47   2        -8.5272E+06  6.8713E+07 -2.5417E+07 -4.1630E-04  1.0182E-03 -9.4405E-04  
         47   3        -7.9403E+06  7.0787E+07 -2.4484E+07 -4.1681E-04  1.0453E-03 -9.0942E-04  
         47   4        -6.4384E+06  5.7293E+07 -2.3148E+07 -3.3752E-04  8.4606E-04 -8.5978E-04  
         47   5        -5.7273E+06  5.9724E+07 -2.2316E+07 -3.3778E-04  8.7775E-04 -8.2888E-04  
         47   6        -5.1155E+06  6.2164E+07 -2.1520E+07 -3.3949E-04  9.0998E-04 -7.9932E-04  
         47   7        -2.5634E+06  5.0170E+07 -1.8970E+07 -2.5163E-04  7.2770E-04 -7.0459E-04  
         47   8        -1.9108E+06  5.2876E+07 -1.8306E+07 -2.5391E-04  7.6356E-04 -6.7995E-04  
         47   9        -1.3464E+06  5.5577E+07 -1.7672E+07 -2.5742E-04  7.9973E-04 -6.5640E-04  
         48   1        -8.7595E+05  4.6582E+07 -1.5603E+07 -2.1215E-04  6.6921E-04 -5.7953E-04  
         48   2        -2.2346E+05  4.9434E+07 -1.5063E+07 -2.1505E-04  7.0716E-04 -5.5949E-04  
         48   3         3.1700E+05  5.2268E+07 -1.4550E+07 -2.1948E-04  7.4532E-04 -5.4042E-04  
         48   4         1.2854E+05  4.1878E+07 -9.0775E+06 -1.7764E-04  5.9771E-04 -3.3716E-04  
         48   5         8.0831E+05  4.4921E+07 -8.7658E+06 -1.8097E-04  6.3827E-04 -3.2559E-04  
         48   6         1.3782E+06  4.7936E+07 -8.4676E+06 -1.8575E-04  6.7889E-04 -3.1451E-04  
         48   7         2.0373E+06  4.0214E+07 -2.1766E+06 -1.4324E-04  5.6575E-04 -8.0846E-05  
         48   8         2.6632E+06  4.3310E+07 -2.1031E+06 -1.4757E-04  6.0729E-04 -7.8114E-05  
         48   9         3.1849E+06  4.6374E+07 -2.0297E+06 -1.5325E-04  6.4884E-04 -7.5389E-05  
         49   1         2.7568E+07  1.2122E+08  8.9760E+05 -1.2566E-04  1.6135E-03  3.3339E-05  
         49   2         2.6386E+07  1.1941E+08  8.8817E+05 -1.3481E-04  1.5928E-03  3.2989E-05  
         49   3         2.5270E+07  1.1783E+08  8.7743E+05 -1.4397E-04  1.5749E-03  3.2590E-05  
         49   4         2.6508E+07  1.2255E+08  3.4983E+06 -1.4653E-04  1.6371E-03  1.2994E-04  
         49   5         2.5352E+07  1.2071E+08  3.4705E+06 -1.5516E-04  1.6158E-03  1.2890E-04  
         49   6         2.4262E+07  1.1910E+08  3.4448E+06 -1.6382E-04  1.5974E-03  1.2795E-04  
         49   7         2.3268E+07  1.2261E+08  5.8500E+06 -1.9305E-04  1.6518E-03  2.1729E-04  
         49   8         2.2232E+07  1.2082E+08  5.8093E+06 -2.0022E-04  1.6308E-03  2.1577E-04  
         49   9         2.1255E+07  1.1927E+08  5.7735E+06 -2.0751E-04  1.6128E-03  2.1444E-04  
         50   1         2.0867E+07  1.2342E+08  6.8903E+06 -2.3083E-04  1.6737E-03  2.5593E-04  
         50   2         1.9916E+07  1.2165E+08  6.8494E+06 -2.3687E-04  1.6526E-03  2.5441E-04  
         50   3         1.9018E+07  1.2011E+08  6.8116E+06 -2.4307E-04  1.6343E-03  2.5300E-04  
         50   4         1.6283E+07  1.2532E+08  7.4077E+06 -3.0449E-04  1.7206E-03  2.7514E-04  
         50   5         1.5482E+07  1.2357E+08  7.4025E+06 -3.0844E-04  1.6990E-03  2.7495E-04  
         50   6         1.4727E+07  1.2205E+08  7.3994E+06 -3.1268E-04  1.6804E-03  2.7484E-04  
         50   7         1.0169E+07  1.2583E+08  7.3478E+06 -3.9400E-04  1.7540E-03  2.7292E-04  
         50   8         9.5884E+06  1.2418E+08  7.3901E+06 -3.9522E-04  1.7329E-03  2.7449E-04  
         50   9         9.0432E+06  1.2275E+08  7.4324E+06 -3.9690E-04  1.7149E-03  2.7606E-04  
         51   1         6.6092E+06  1.2645E+08  6.6014E+06 -4.4751E-04  1.7781E-03  2.4520E-04  
         51   2         6.1613E+06  1.2486E+08  6.6865E+06 -4.4711E-04  1.7574E-03  2.4836E-04  
         51   3         5.7358E+06  1.2348E+08  6.7720E+06 -4.4726E-04  1.7394E-03  2.5153E-04  
         51   4         1.0008E+06  1.2684E+08  4.0219E+06 -5.2929E-04  1.8077E-03  1.4939E-04  
         51   5         7.5147E+05  1.2536E+08  4.2186E+06 -5.2653E-04  1.7876E-03  1.5669E-04  
         51   6         5.1619E+05  1.2409E+08  4.4083E+06 -5.2444E-04  1.7705E-03  1.6374E-04  
         51   7        -5.1220E+06  1.2578E+08  9.4269E+05 -6.1222E-04  1.8188E-03  3.5014E-05  
         51   8        -5.1397E+06  1.2449E+08  1.2587E+06 -6.0693E-04  1.8004E-03  4.6750E-05  
         51   9        -5.1532E+06  1.2340E+08  1.5592E+06 -6.0248E-04  1.7849E-03  5.7914E-05  
         52   1        -8.0583E+06  1.2488E+08 -1.4732E+06 -6.5030E-04  1.8185E-03 -5.4719E-05  
         52   2        -7.9515E+06  1.2371E+08 -1.0785E+06 -6.4380E-04  1.8014E-03 -4.0060E-05  
         52   3        -7.8581E+06  1.2273E+08 -6.9631E+05 -6.3825E-04  1.7870E-03 -2.5863E-05  
         52   4        -1.1903E+07  1.2175E+08 -6.1435E+06 -6.9183E-04  1.7903E-03 -2.2819E-04  
         52   5        -1.1636E+07  1.2084E+08 -5.5964E+06 -6.8410E-04  1.7761E-03 -2.0787E-04  
         52   6        -1.1386E+07  1.2010E+08 -5.0734E+06 -6.7736E-04  1.7645E-03 -1.8844E-04  
         52   7        -1.5299E+07  1.1749E+08 -1.0842E+07 -7.2208E-04  1.7439E-03 -4.0271E-04  
         52   8        -1.4878E+07  1.1687E+08 -1.0149E+07 -7.1340E-04  1.7333E-03 -3.7696E-04  
         52   9        -1.4478E+07  1.1641E+08 -9.4912E+06 -7.0574E-04  1.7251E-03 -3.5253E-04  
         53   1        -1.6289E+07  1.1432E+08 -1.3679E+07 -7.2264E-04  1.7030E-03 -5.0809E-04  
         53   2        -1.5795E+07  1.1390E+08 -1.2909E+07 -7.1380E-04  1.6949E-03 -4.7947E-04  
         53   3        -1.5342E+07  1.1363E+08 -1.2169E+07 -7.0614E-04  1.6890E-03 -4.5198E-04  
         53   4        -1.6852E+07  1.0723E+08 -1.7928E+07 -7.0029E-04  1.6041E-03 -6.6591E-04  
         53   5        -1.6287E+07  1.0718E+08 -1.7040E+07 -6.9202E-04  1.6010E-03 -6.3292E-04  
         53   6        -1.5761E+07  1.0726E+08 -1.6193E+07 -6.8486E-04  1.5999E-03 -6.0146E-04  
         53   7        -1.6390E+07  9.9792E+07 -2.1598E+07 -6.6181E-04  1.4958E-03 -8.0223E-04  
         53   8        -1.5790E+07  1.0012E+08 -2.0615E+07 -6.5467E-04  1.4980E-03 -7.6571E-04  
         53   9        -1.5224E+07  1.0057E+08 -1.9683E+07 -6.4850E-04  1.5020E-03 -7.3108E-04  
         54   1        -1.5281E+07  9.4844E+07 -2.3181E+07 -6.2478E-04  1.4204E-03 -8.6101E-04  
         54   2        -1.4671E+07  9.5422E+07 -2.2170E+07 -6.1854E-04  1.4260E-03 -8.2344E-04  
         54   3        -1.4115E+07  9.6089E+07 -2.1202E+07 -6.1346E-04  1.4332E-03 -7.8752E-04  
         54   4        -1.3092E+07  8.5480E+07 -2.4429E+07 -5.5337E-04  1.2773E-03 -9.0737E-04  
         54   5        -1.2493E+07  8.6477E+07 -2.3409E+07 -5.4909E-04  1.2889E-03 -8.6948E-04  
         54   6        -1.1941E+07  8.7547E+07 -2.2437E+07 -5.4579E-04  1.3019E-03 -8.3338E-04  
         54   7        -9.7739E+06  7.6935E+07 -2.4711E+07 -4.6935E-04  1.1410E-03 -9.1783E-04  
         54   8        -9.2380E+06  7.8310E+07 -2.3714E+07 -4.6759E-04  1.1583E-03 -8.8081E-04  
         54   9        -8.7380E+06  7.9743E+07 -2.2768E+07 -4.6658E-04  1.1766E-03 -8.4567E-04  
         55   1        -7.6134E+06  7.1836E+07 -2.3917E+07 -4.1663E-04  1.0589E-03 -8.8836E-04  
         55   2        -7.1070E+06  7.3437E+07 -2.2971E+07 -4.1626E-04  1.0796E-03 -8.5321E-04  
         55   3        -6.6524E+06  7.5076E+07 -2.2068E+07 -4.1679E-04  1.1010E-03 -8.1968E-04  
         55   4        -4.8075E+06  6.3428E+07 -2.1043E+07 -3.4052E-04  9.2672E-04 -7.8161E-04  
         55   5        -4.3402E+06  6.5381E+07 -2.0225E+07 -3.4221E-04  9.5262E-04 -7.5122E-04  
         55   6        -3.9168E+06  6.7356E+07 -1.9446E+07 -3.4462E-04  9.7902E-04 -7.2228E-04  
         55   7        -1.0734E+06  5.7009E+07 -1.7280E+07 -2.5966E-04  8.1902E-04 -6.4184E-04  
         55   8        -7.0000E+05  5.9227E+07 -1.6618E+07 -2.6383E-04  8.4910E-04 -6.1725E-04  
         55   9        -3.6036E+05  6.1455E+07 -1.5989E+07 -2.6853E-04  8.7948E-04 -5.9388E-04  
         56   1         5.7044E+05  5.3775E+07 -1.4228E+07 -2.2232E-04  7.6577E-04 -5.2848E-04  
         56   2         9.1438E+05  5.6128E+07 -1.3688E+07 -2.2749E-04  7.9792E-04 -5.0841E-04  
         56   3         1.2157E+06  5.8482E+07 -1.3174E+07 -2.3327E-04  8.3025E-04 -4.8931E-04  
         56   4         1.6308E+06  4.9539E+07 -8.2865E+06 -1.8901E-04  7.0071E-04 -3.0779E-04  
         56   5         1.9707E+06  5.2066E+07 -7.9732E+06 -1.9499E-04  7.3535E-04 -2.9615E-04  
         56   6         2.2707E+06  5.4585E+07 -7.6750E+06 -2.0150E-04  7.7005E-04 -2.8507E-04  
         56   7         3.4106E+06  4.8025E+07 -1.9864E+06 -1.5710E-04  6.7146E-04 -7.3780E-05  
         56   8         3.6919E+06  5.0611E+07 -1.9111E+06 -1.6416E-04  7.0719E-04 -7.0985E-05  
         56   9         3.9381E+06  5.3186E+07 -1.8392E+06 -1.7168E-04  7.4293E-04 -6.8314E-05  
         57   1         2.4624E+07  1.1699E+08  8.6853E+05 -1.4963E-04  1.5658E-03  3.2260E-05  
         57   2         2.3577E+07  1.1569E+08  8.4989E+05 -1.5901E-04  1.5517E-03  3.1567E-05  
         57   3         2.2572E+07  1.1453E+08  8.3213E+05 -1.6839E-04  1.5394E-03  3.0908E-05  
         57   4         2.3644E+07  1.1825E+08  3.4150E+06 -1.6901E-04  1.5879E-03  1.2684E-04  
         57   5         2.2629E+07  1.1691E+08  3.3488E+06 -1.7776E-04  1.5731E-03  1.2438E-04  
         57   6         2.1656E+07  1.1571E+08  3.2873E+06 -1.8655E-04  1.5603E-03  1.2210E-04  
         57   7         2.0695E+07  1.1844E+08  5.7208E+06 -2.1195E-04  1.6033E-03  2.1249E-04  
         57   8         1.9790E+07  1.1713E+08  5.6132E+06 -2.1926E-04  1.5884E-03  2.0849E-04  
         57   9         1.8922E+07  1.1597E+08  5.5136E+06 -2.2668E-04  1.5756E-03  2.0479E-04  
         58   1         1.8503E+07  1.1928E+08  6.7533E+06 -2.4686E-04  1.6247E-03  2.5084E-04  
         58   2         1.7680E+07  1.1797E+08  6.6299E+06 -2.5300E-04  1.6095E-03  2.4625E-04  
         58   3         1.6888E+07  1.1680E+08  6.5157E+06 -2.5931E-04  1.5962E-03  2.4201E-04  
         58   4         1.4309E+07  1.2122E+08  7.3587E+06 -3.1509E-04  1.6704E-03  2.7332E-04  
         58   5         1.3637E+07  1.1989E+08  7.2480E+06 -3.1899E-04  1.6543E-03  2.6921E-04  
         58   6         1.2990E+07  1.1871E+08  7.1464E+06 -3.2318E-04  1.6401E-03  2.6544E-04  
         58   7         8.7472E+06  1.2196E+08  7.4034E+06 -3.9772E-04  1.7048E-03  2.7498E-04  
         58   8         8.2832E+06  1.2067E+08  7.3193E+06 -3.9884E-04  1.6884E-03  2.7186E-04  
         58   9         7.8344E+06  1.1954E+08  7.2431E+06 -4.0040E-04  1.6742E-03  2.6903E-04  
         59   1         5.5092E+06  1.2270E+08  6.7658E+06 -4.4715E-04  1.7292E-03  2.5130E-04  
         59   2         5.1691E+06  1.2144E+08  6.7158E+06 -4.4661E-04  1.7127E-03  2.4944E-04  
         59   3         4.8351E+06  1.2032E+08  6.6739E+06 -4.4659E-04  1.6982E-03  2.4789E-04  
         59   4         4.0726E+05  1.2337E+08  4.4693E+06 -5.2290E-04  1.7606E-03  1.6600E-04  
         59   5         2.5840E+05  1.2216E+08  4.5186E+06 -5.1986E-04  1.7441E-03  1.6783E-04  
         59   6         1.0833E+05  1.2110E+08  4.5702E+06 -5.1747E-04  1.7296E-03  1.6975E-04  
         59   7        -5.1288E+06  1.2275E+08  1.6783E+06 -5.9933E-04  1.7755E-03  6.2338E-05  
         59   8        -5.0625E+06  1.2166E+08  1.8375E+06 -5.9372E-04  1.7597E-03  6.8251E-05  
         59   9        -5.0057E+06  1.2072E+08  1.9923E+06 -5.8887E-04  1.7460E-03  7.4001E-05  
         60   1        -7.7732E+06  1.2213E+08 -5.2945E+05 -6.3446E-04  1.7780E-03 -1.9665E-05  
         60   2        -7.5970E+06  1.2112E+08 -2.9187E+05 -6.2763E-04  1.7629E-03 -1.0841E-05  
         60   3        -7.4407E+06  1.2025E+08 -5.9117E+04 -6.2167E-04  1.7498E-03 -2.1958E-06  
         60   4        -1.1215E+07  1.1963E+08 -4.8133E+06 -6.7291E-04  1.7571E-03 -1.7878E-04  
         60   5        -1.0895E+07  1.1880E+08 -4.4240E+06 -6.6481E-04  1.7439E-03 -1.6432E-04  
         60   6        -1.0599E+07  1.1811E+08 -4.0493E+06 -6.5761E-04  1.7327E-03 -1.5040E-04  
         60   7        -1.4214E+07  1.1608E+08 -9.1495E+06 -7.0055E-04  1.7192E-03 -3.3984E-04  
         60   8        -1.3760E+07  1.1548E+08 -8.6114E+06 -6.9148E-04  1.7087E-03 -3.1985E-04  
         60   9        -1.3333E+07  1.1500E+08 -8.0978E+06 -6.8335E-04  1.7001E-03 -3.0078E-04  
         61   1        -1.5051E+07  1.1339E+08 -1.1777E+07 -7.0096E-04  1.6843E-03 -4.3743E-04  
         61   2        -1.4545E+07  1.1294E+08 -1.1155E+07 -6.9181E-04  1.6758E-03 -4.1433E-04  
         61   3        -1.4074E+07  1.1261E+08 -1.0558E+07 -6.8366E-04  1.6690E-03 -3.9214E-04  
         61   4        -1.5441E+07  1.0723E+08 -1.5730E+07 -6.8017E-04  1.5981E-03 -5.8424E-04  
         61   5        -1.4889E+07  1.0709E+08 -1.4982E+07 -6.7168E-04  1.5937E-03 -5.5646E-04  
         61   6        -1.4370E+07  1.0706E+08 -1.4267E+07 -6.6411E-04  1.5910E-03 -5.2993E-04  
         61   7        -1.4881E+07  1.0073E+08 -1.9160E+07 -6.4427E-04  1.5027E-03 -7.1164E-04  
         61   8        -1.4316E+07  1.0090E+08 -1.8306E+07 -6.3695E-04  1.5028E-03 -6.7993E-04  
         61   9        -1.3779E+07  1.0117E+08 -1.7493E+07 -6.3044E-04  1.5044E-03 -6.4975E-04  
         62   1        -1.3783E+07  9.6367E+07 -2.0656E+07 -6.0990E-04  1.4357E-03 -7.6723E-04  
         62   2        -1.3230E+07  9.6748E+07 -1.9764E+07 -6.0364E-04  1.4388E-03 -7.3409E-04  
         62   3        -1.2713E+07  9.7207E+07 -1.8911E+07 -5.9822E-04  1.4432E-03 -7.0240E-04  
         62   4        -1.1629E+07  8.8065E+07 -2.1885E+07 -5.4355E-04  1.3079E-03 -8.1286E-04  
         62   5        -1.1116E+07  8.8810E+07 -2.0970E+07 -5.3941E-04  1.3164E-03 -7.7888E-04  
         62   6        -1.0632E+07  8.9620E+07 -2.0098E+07 -5.3597E-04  1.3258E-03 -7.4650E-04  
         62   7        -8.4607E+06  8.0457E+07 -2.2220E+07 -4.6568E-04  1.1856E-03 -8.2532E-04  
         62   8        -8.0292E+06  8.1536E+07 -2.1313E+07 -4.6414E-04  1.1992E-03 -7.9162E-04  
         62   9        -7.6173E+06  8.2667E+07 -2.0451E+07 -4.6311E-04  1.2136E-03 -7.5961E-04  
         63   1        -6.4064E+06  7.5905E+07 -2.1544E+07 -4.1683E-04  1.1118E-03 -8.0019E-04  
         63   2        -6.0243E+06  7.7182E+07 -2.0676E+07 -4.1684E-04  1.1284E-03 -7.6797E-04  
         63   3        -5.6659E+06  7.8497E+07 -1.9849E+07 -4.1736E-04  1.1457E-03 -7.3724E-04  
         63   4        -3.7035E+06  6.8386E+07 -1.8995E+07 -3.4599E-04  9.9281E-04 -7.0554E-04  
         63   5        -3.3850E+06  6.9974E+07 -1.8240E+07 -3.4825E-04  1.0141E-03 -6.7750E-04  
         63   6        -3.0832E+06  7.1588E+07 -1.7522E+07 -3.5085E-04  1.0359E-03 -6.5081E-04  
         63   7        -2.0194E+05  6.2627E+07 -1.5620E+07 -2.7129E-04  8.9553E-04 -5.8017E-04  
         63   8         1.1778E+04  6.4457E+07 -1.5005E+07 -2.7608E-04  9.2076E-04 -5.5731E-04  
         63   9         2.1771E+05  6.6303E+07 -1.4420E+07 -2.8105E-04  9.4625E-04 -5.3560E-04  
         64   1         1.3489E+06  5.9725E+07 -1.2871E+07 -2.3669E-04  8.4743E-04 -4.7805E-04  
         64   2         1.5215E+06  6.1676E+07 -1.2367E+07 -2.4259E-04  8.7456E-04 -4.5936E-04  
         64   3         1.6845E+06  6.3636E+07 -1.1887E+07 -2.4866E-04  9.0186E-04 -4.4153E-04  
         64   4         2.3966E+06  5.5925E+07 -7.5012E+06 -2.0544E-04  7.8866E-04 -2.7862E-04  
         64   5         2.5504E+06  5.8029E+07 -7.2088E+06 -2.1226E-04  8.1806E-04 -2.6776E-04  
         64   6         2.6970E+06  6.0135E+07 -6.9306E+06 -2.1919E-04  8.4751E-04 -2.5742E-04  
         64   7         4.0309E+06  5.4558E+07 -1.7976E+06 -1.7624E-04  7.6213E-04 -6.6769E-05  
         64   8         4.1278E+06  5.6721E+07 -1.7269E+06 -1.8412E-04  7.9261E-04 -6.4142E-05  
         64   9         4.2216E+06  5.8883E+07 -1.6605E+06 -1.9205E-04  8.2309E-04 -6.1674E-05  
         65   1         2.2008E+07  1.1392E+08  8.2022E+05 -1.7382E-04  1.5331E-03  3.0465E-05  
         65   2         2.1093E+07  1.1295E+08  7.9809E+05 -1.8275E-04  1.5232E-03  2.9643E-05  
         65   3         2.0205E+07  1.1208E+08  7.7773E+05 -1.9169E-04  1.5145E-03  2.8887E-05  
         65   4         2.1111E+07  1.1508E+08  3.2435E+06 -1.9162E-04  1.5535E-03  1.2047E-04  
         65   5         2.0229E+07  1.1408E+08  3.1618E+06 -1.9992E-04  1.5430E-03  1.1744E-04  
         65   6         1.9374E+07  1.1317E+08  3.0855E+06 -2.0825E-04  1.5337E-03  1.1460E-04  
         65   7         1.8438E+07  1.1534E+08  5.4395E+06 -2.3093E-04  1.5687E-03  2.0204E-04  
         65   8         1.7655E+07  1.1435E+08  5.3045E+06 -2.3788E-04  1.5580E-03  1.9702E-04  
         65   9         1.6894E+07  1.1346E+08  5.1780E+06 -2.4492E-04  1.5485E-03  1.9232E-04  
         66   1         1.6448E+07  1.1617E+08  6.4304E+06 -2.6290E-04  1.5891E-03  2.3884E-04  
         66   2         1.5739E+07  1.1517E+08  6.2725E+06 -2.6873E-04  1.5778E-03  2.3298E-04  
         66   3         1.5049E+07  1.1426E+08  6.1257E+06 -2.7471E-04  1.5678E-03  2.2753E-04  
         66   4         1.2634E+07  1.1806E+08  7.0658E+06 -3.2549E-04  1.6325E-03  2.6244E-04  
         66   5         1.2068E+07  1.1702E+08  6.9081E+06 -3.2914E-04  1.6201E-03  2.5659E-04  
         66   6         1.1514E+07  1.1609E+08  6.7617E+06 -3.3304E-04  1.6091E-03  2.5115E-04  
         66   7         7.5949E+06  1.1891E+08  7.1700E+06 -4.0112E-04  1.6662E-03  2.6631E-04  
         66   8         7.2178E+06  1.1789E+08  7.0266E+06 -4.0214E-04  1.6532E-03  2.6099E-04  
         66   9         6.8458E+06  1.1698E+08  6.8940E+06 -4.0353E-04  1.6417E-03  2.5606E-04  
         67   1         4.6616E+06  1.1969E+08  6.6191E+06 -4.4638E-04  1.6899E-03  2.4585E-04  
         67   2         4.3966E+06  1.1868E+08  6.5032E+06 -4.4581E-04  1.6766E-03  2.4155E-04  
         67   3         4.1299E+06  1.1776E+08  6.3983E+06 -4.4570E-04  1.6646E-03  2.3765E-04  
         67   4         4.0008E+04  1.2050E+08  4.5711E+06 -5.1587E-04  1.7213E-03  1.6978E-04  
         67   5        -4.9059E+04  1.1951E+08  4.5423E+06 -5.1288E-04  1.7075E-03  1.6871E-04  
         67   6        -1.4596E+05  1.1862E+08  4.5197E+06 -5.1047E-04  1.6952E-03  1.6788E-04  
         67   7        -4.9533E+06  1.2017E+08  2.0491E+06 -5.8576E-04  1.7379E-03  7.6109E-05  
         67   8        -4.8487E+06  1.1924E+08  2.1188E+06 -5.8032E-04  1.7243E-03  7.8700E-05  
         67   9        -4.7587E+06  1.1843E+08  2.1894E+06 -5.7555E-04  1.7123E-03  8.1322E-05  
         68   1        -7.3319E+06  1.1974E+08  4.2682E+04 -6.1789E-04  1.7419E-03  1.5853E-06  
         68   2        -7.1313E+06  1.1887E+08  1.8578E+05 -6.1131E-04  1.7287E-03  6.9006E-06  
         68   3        -6.9516E+06  1.1811E+08  3.2785E+05 -6.0548E-04  1.7170E-03  1.2177E-05  
         68   4        -1.0414E+07  1.1769E+08 -3.8608E+06 -6.5316E-04  1.7259E-03 -1.4340E-04  
         68   5        -1.0087E+07  1.1696E+08 -3.5755E+06 -6.4536E-04  1.7141E-03 -1.3280E-04  
         68   6        -9.7838E+06  1.1633E+08 -3.2993E+06 -6.3834E-04  1.7038E-03 -1.2254E-04  
         68   7        -1.3072E+07  1.1469E+08 -7.8288E+06 -6.7827E-04  1.6944E-03 -2.9079E-04  
         68   8        -1.2630E+07  1.1413E+08 -7.4025E+06 -6.6956E-04  1.6846E-03 -2.7495E-04  
         68   9        -1.2213E+07  1.1367E+08 -6.9935E+06 -6.6165E-04  1.6763E-03 -2.5976E-04  
         69   1        -1.3790E+07  1.1237E+08 -1.0239E+07 -6.7858E-04  1.6643E-03 -3.8031E-04  
         69   2        -1.3308E+07  1.1193E+08 -9.7308E+06 -6.6983E-04  1.6561E-03 -3.6143E-04  
         69   3        -1.2856E+07  1.1159E+08 -9.2419E+06 -6.6191E-04  1.6492E-03 -3.4327E-04  
         69   4        -1.4066E+07  1.0699E+08 -1.3876E+07 -6.5945E-04  1.5887E-03 -5.1539E-04  
         69   5        -1.3554E+07  1.0681E+08 -1.3245E+07 -6.5136E-04  1.5839E-03 -4.9196E-04  
         69   6        -1.3069E+07  1.0671E+08 -1.2641E+07 -6.4403E-04  1.5804E-03 -4.6952E-04  
         69   7        -1.3468E+07  1.0126E+08 -1.7042E+07 -6.2636E-04  1.5043E-03 -6.3299E-04  
         69   8        -1.2954E+07  1.0134E+08 -1.6306E+07 -6.1939E-04  1.5033E-03 -6.0564E-04  
         69   9        -1.2465E+07  1.0150E+08 -1.5603E+07 -6.1309E-04  1.5035E-03 -5.7955E-04  
         70   1        -1.2416E+07  9.7398E+07 -1.8435E+07 -5.9479E-04  1.4446E-03 -6.8471E-04  
         70   2        -1.1926E+07  9.7656E+07 -1.7657E+07 -5.8889E-04  1.4462E-03 -6.5583E-04  
         70   3        -1.1460E+07  9.7981E+07 -1.6913E+07 -5.8363E-04  1.4488E-03 -6.2820E-04  
         70   4        -1.0360E+07  9.0016E+07 -1.9608E+07 -5.3379E-04  1.3303E-03 -7.2828E-04  
         70   5        -9.9218E+06  9.0588E+07 -1.8802E+07 -5.2998E-04  1.3366E-03 -6.9836E-04  
         70   6        -9.5015E+06  9.1216E+07 -1.8033E+07 -5.2666E-04  1.3438E-03 -6.6980E-04  
         70   7        -7.3936E+06  8.3232E+07 -1.9962E+07 -4.6233E-04  1.2207E-03 -7.4145E-04  
         70   8        -7.0412E+06  8.4094E+07 -1.9156E+07 -4.6099E-04  1.2315E-03 -7.1150E-04  
         70   9        -6.6994E+06  8.5003E+07 -1.8388E+07 -4.6000E-04  1.2430E-03 -6.8298E-04  
         71   1        -5.4759E+06  7.9164E+07 -1.9379E+07 -4.1750E-04  1.1544E-03 -7.1978E-04  
         71   2        -5.1796E+06  8.0198E+07 -1.8604E+07 -4.1770E-04  1.1679E-03 -6.9101E-04  
         71   3        -4.8926E+06  8.1268E+07 -1.7864E+07 -4.1819E-04  1.1819E-03 -6.6353E-04  
         71   4        -2.9306E+06  7.2435E+07 -1.7113E+07 -3.5230E-04  1.0473E-03 -6.3561E-04  
         71   5        -2.7068E+06  7.3742E+07 -1.6436E+07 -3.5471E-04  1.0651E-03 -6.1048E-04  
         71   6        -2.4860E+06  7.5074E+07 -1.5791E+07 -3.5726E-04  1.0831E-03 -5.8652E-04  
         71   7         3.0888E+05  6.7270E+07 -1.4086E+07 -2.8389E-04  9.5968E-04 -5.2318E-04  
         71   8         4.2878E+05  6.8793E+07 -1.3531E+07 -2.8870E-04  9.8091E-04 -5.0259E-04  
         71   9         5.5304E+05  7.0332E+07 -1.3005E+07 -2.9352E-04  1.0024E-03 -4.8303E-04  
         72   1         1.7492E+06  6.4667E+07 -1.1613E+07 -2.5215E-04  9.1631E-04 -4.3133E-04  
         72   2         1.8247E+06  6.6296E+07 -1.1159E+07 -2.5806E-04  9.3926E-04 -4.1447E-04  
         72   3         1.9061E+06  6.7936E+07 -1.0725E+07 -2.6392E-04  9.6234E-04 -3.9835E-04  
         72   4         2.7517E+06  6.1259E+07 -6.7715E+06 -2.2323E-04  8.6334E-04 -2.5151E-04  
         72   5         2.8019E+06  6.3021E+07 -6.5076E+06 -2.3006E-04  8.8830E-04 -2.4171E-04  
         72   6         2.8602E+06  6.4789E+07 -6.2561E+06 -2.3681E-04  9.1330E-04 -2.3237E-04  
         72   7         4.2421E+06  6.0029E+07 -1.6224E+06 -1.9666E-04  8.3937E-04 -6.0259E-05  
         72   8         4.2398E+06  6.1845E+07 -1.5583E+06 -2.0448E-04  8.6533E-04 -5.7880E-05  
         72   9         4.2488E+06  6.3665E+07 -1.4986E+06 -2.1215E-04  8.9129E-04 -5.5661E-05  
         73   1         1.9716E+07  1.1162E+08  7.6490E+05 -1.9669E-04  1.5100E-03  2.8410E-05  
         73   2         1.8920E+07  1.1088E+08  7.4214E+05 -2.0492E-04  1.5029E-03  2.7565E-05  
         73   3         1.8143E+07  1.1021E+08  7.2142E+05 -2.1314E-04  1.4967E-03  2.6796E-05  
         73   4         1.8898E+07  1.1268E+08  3.0368E+06 -2.1297E-04  1.5288E-03  1.1280E-04  
         73   5         1.8134E+07  1.1192E+08  2.9512E+06 -2.2058E-04  1.5211E-03  1.0962E-04  
         73   6         1.7388E+07  1.1121E+08  2.8709E+06 -2.2822E-04  1.5142E-03  1.0663E-04  
         73   7         1.6477E+07  1.1298E+08  5.0967E+06 -2.4883E-04  1.5434E-03  1.8931E-04  
         73   8         1.5801E+07  1.1222E+08  4.9542E+06 -2.5521E-04  1.5354E-03  1.8401E-04  
         73   9         1.5138E+07  1.1152E+08  4.8199E+06 -2.6168E-04  1.5283E-03  1.7902E-04  
         74   1         1.4673E+07  1.1377E+08  6.0309E+06 -2.7800E-04  1.5625E-03  2.2400E-04  
         74   2         1.4063E+07  1.1299E+08  5.8631E+06 -2.8335E-04  1.5539E-03  2.1777E-04  
         74   3         1.3464E+07  1.1228E+08  5.7065E+06 -2.8884E-04  1.5463E-03  2.1195E-04  
         74   4         1.1211E+07  1.1558E+08  6.6646E+06 -3.3518E-04  1.6031E-03  2.4754E-04  
         74   5         1.0731E+07  1.1475E+08  6.4903E+06 -3.3850E-04  1.5933E-03  2.4107E-04  
         74   6         1.0258E+07  1.1400E+08  6.3275E+06 -3.4204E-04  1.5846E-03  2.3502E-04  
         74   7         6.6492E+06  1.1647E+08  6.8017E+06 -4.0416E-04  1.6353E-03  2.5263E-04  
         74   8         6.3384E+06  1.1564E+08  6.6344E+06 -4.0506E-04  1.6249E-03  2.4642E-04  
         74   9         6.0276E+06  1.1489E+08  6.4783E+06 -4.0629E-04  1.6155E-03  2.4062E-04  
         75   1         3.9939E+06  1.1725E+08  6.3209E+06 -4.4546E-04  1.6579E-03  2.3478E-04  
         75   2         3.7829E+06  1.1642E+08  6.1762E+06 -4.4490E-04  1.6469E-03  2.2940E-04  
         75   3         3.5668E+06  1.1566E+08  6.0428E+06 -4.4474E-04  1.6370E-03  2.2445E-04  
         75   4        -1.8917E+05  1.1812E+08  4.4890E+06 -5.0893E-04  1.6882E-03  1.6673E-04  
         75   5        -2.4177E+05  1.1729E+08  4.4200E+06 -5.0614E-04  1.6766E-03  1.6417E-04  
         75   6        -3.0467E+05  1.1655E+08  4.3587E+06 -5.0383E-04  1.6662E-03  1.6190E-04  
         75   7        -4.6944E+06  1.1796E+08  2.2102E+06 -5.7262E-04  1.7053E-03  8.2093E-05  
         75   8        -4.5751E+06  1.1718E+08  2.2285E+06 -5.6757E-04  1.6936E-03  8.2772E-05  
         75   9        -4.4717E+06  1.1648E+08  2.2500E+06 -5.6310E-04  1.6832E-03  8.3571E-05  
         76   1        -6.8364E+06  1.1766E+08  3.8971E+05 -6.0193E-04  1.7102E-03  1.4475E-05  
         76   2        -6.6335E+06  1.1692E+08  4.7467E+05 -5.9584E-04  1.6987E-03  1.7631E-05  
         76   3        -6.4505E+06  1.1625E+08  5.6045E+05 -5.9038E-04  1.6884E-03  2.0817E-05  
         76   4        -9.6016E+06  1.1596E+08 -3.1590E+06 -6.3414E-04  1.6977E-03 -1.1733E-04  
         76   5        -9.2887E+06  1.1532E+08 -2.9446E+06 -6.2692E-04  1.6872E-03 -1.0937E-04  
         76   6        -8.9979E+06  1.1476E+08 -2.7359E+06 -6.2037E-04  1.6780E-03 -1.0162E-04  
         76   7        -1.1969E+07  1.1338E+08 -6.7778E+06 -6.5692E-04  1.6711E-03 -2.5175E-04  
         76   8        -1.1556E+07  1.1288E+08 -6.4341E+06 -6.4887E-04  1.6621E-03 -2.3898E-04  
         76   9        -1.1168E+07  1.1246E+08 -6.1028E+06 -6.4150E-04  1.6544E-03 -2.2668E-04  
         77   1        -1.2592E+07  1.1136E+08 -8.9796E+06 -6.5716E-04  1.6449E-03 -3.3353E-04  
         77   2        -1.2149E+07  1.1096E+08 -8.5594E+06 -6.4910E-04  1.6372E-03 -3.1792E-04  
         77   3        -1.1731E+07  1.1063E+08 -8.1547E+06 -6.4171E-04  1.6307E-03 -3.0289E-04  
         77   4        -1.2790E+07  1.0662E+08 -1.2310E+07 -6.3966E-04  1.5780E-03 -4.5722E-04  
         77   5        -1.2326E+07  1.0643E+08 -1.1775E+07 -6.3222E-04  1.5732E-03 -4.3736E-04  
         77   6        -1.1886E+07  1.0631E+08 -1.1262E+07 -6.2540E-04  1.5696E-03 -4.1832E-04  
         77   7        -1.2187E+07  1.0155E+08 -1.5215E+07 -6.0931E-04  1.5029E-03 -5.6514E-04  
         77   8        -1.1729E+07  1.0158E+08 -1.4581E+07 -6.0290E-04  1.5014E-03 -5.4159E-04  
         77   9        -1.1291E+07  1.0168E+08 -1.3975E+07 -5.9705E-04  1.5009E-03 -5.1906E-04  
         78   1        -1.1198E+07  9.8114E+07 -1.6500E+07 -5.8045E-04  1.4496E-03 -6.1287E-04  
         78   2        -1.0767E+07  9.8294E+07 -1.5826E+07 -5.7507E-04  1.4503E-03 -5.8782E-04  
         78   3        -1.0353E+07  9.8528E+07 -1.5180E+07 -5.7016E-04  1.4519E-03 -5.6382E-04  
         78   4        -9.2670E+06  9.1526E+07 -1.7603E+07 -5.2464E-04  1.3472E-03 -6.5381E-04  
         78   5        -8.8914E+06  9.1976E+07 -1.6899E+07 -5.2120E-04  1.3520E-03 -6.2766E-04  
         78   6        -8.5278E+06  9.2472E+07 -1.6226E+07 -5.1813E-04  1.3576E-03 -6.0267E-04  
         78   7        -6.5163E+06  8.5457E+07 -1.7958E+07 -4.5933E-04  1.2487E-03 -6.6700E-04  
         78   8        -6.2249E+06  8.6159E+07 -1.7248E+07 -4.5818E-04  1.2575E-03 -6.4065E-04  
         78   9        -5.9392E+06  8.6899E+07 -1.6572E+07 -4.5727E-04  1.2669E-03 -6.1552E-04  
[...]
       787      -2.1910E-03  2.7074E-03   0.000       0.000     
       788      -2.0423E-03  3.3612E-03   0.000       0.000     
       789      -1.8726E-03  3.9966E-03   0.000       0.000     
       790      -1.6877E-03  4.6071E-03   0.000       0.000     
       791      -1.4933E-03  5.1855E-03   0.000       0.000     
       792      -1.2944E-03  5.7240E-03   0.000       0.000     
       793      -1.0954E-03  6.2142E-03   0.000       0.000     
       794      -8.9941E-04  6.6474E-03   0.000       0.000     
       795      -7.0873E-04  7.0154E-03   0.000       0.000     
       796      -5.2426E-04  7.3104E-03   0.000       0.000     
       797      -3.4565E-04  7.5261E-03   0.000       0.000     
       798      -1.7159E-04  7.6576E-03   0.000       0.000     
       799        0.000      7.7018E-03 -9.3823E+04   0.000     
       800      -2.5094E-03   0.000       0.000     -1.1401E+07 
       802      -2.4340E-03  1.3876E-03   0.000       0.000     
       804      -2.2200E-03  2.7519E-03   0.000       0.000     
       806      -1.9001E-03  4.0602E-03   0.000       0.000     
       808      -1.5183E-03  5.2648E-03   0.000       0.000     
       810      -1.1163E-03  6.3057E-03   0.000       0.000     
       812      -7.2382E-04  7.1153E-03   0.000       0.000     
       814      -3.5356E-04  7.6310E-03   0.000       0.000     
       816        0.000      7.8083E-03 -1.8150E+05   0.000     
       817      -2.5392E-03   0.000       0.000     -5.6958E+06 
       818      -2.5201E-03  7.0668E-04   0.000       0.000     
       819      -2.4636E-03  1.4105E-03   0.000       0.000     
       820      -2.3720E-03  2.1084E-03   0.000       0.000     
       821      -2.2490E-03  2.7965E-03   0.000       0.000     
       822      -2.0991E-03  3.4703E-03   0.000       0.000     
       823      -1.9278E-03  4.1240E-03   0.000       0.000     
       824      -1.7407E-03  4.7512E-03   0.000       0.000     
       825      -1.5434E-03  5.3444E-03   0.000       0.000     
       826      -1.3408E-03  5.8960E-03   0.000       0.000     
       827      -1.1372E-03  6.3974E-03   0.000       0.000     
       828      -9.3576E-04  6.8400E-03   0.000       0.000     
       829      -7.3886E-04  7.2156E-03   0.000       0.000     
       830      -5.4749E-04  7.5164E-03   0.000       0.000     
       831      -3.6145E-04  7.7363E-03   0.000       0.000     
       832      -1.7959E-04  7.8702E-03   0.000       0.000     
       833        0.000      7.9152E-03 -8.8150E+04   0.000     
       834      -2.5692E-03   0.000       0.000     -1.1383E+07 
       836      -2.4935E-03  1.4335E-03   0.000       0.000     
       838      -2.2782E-03  2.8412E-03   0.000       0.000     
       840      -1.9556E-03  4.1879E-03   0.000       0.000     
       842      -1.5685E-03  5.4242E-03   0.000       0.000     
       844      -1.1580E-03  6.4894E-03   0.000       0.000     
       846      -7.5387E-04  7.3162E-03   0.000       0.000     
       848      -3.6931E-04  7.8420E-03   0.000       0.000     
       850        0.000      8.0226E-03 -1.7065E+05   0.000     
       851      -2.5994E-03   0.000       0.000     -5.6870E+06 
       852      -2.5802E-03  7.2983E-04   0.000       0.000     
       853      -2.5235E-03  1.4565E-03   0.000       0.000     
       854      -2.4314E-03  2.1766E-03   0.000       0.000     
       855      -2.3075E-03  2.8859E-03   0.000       0.000     
       856      -2.1564E-03  3.5796E-03   0.000       0.000     
       857      -1.9834E-03  4.2519E-03   0.000       0.000     
       858      -1.7939E-03  4.8959E-03   0.000       0.000     
       859      -1.5936E-03  5.5041E-03   0.000       0.000     
       860      -1.3873E-03  6.0688E-03   0.000       0.000     
       861      -1.1789E-03  6.5817E-03   0.000       0.000     
       862      -9.7200E-04  7.0338E-03   0.000       0.000     
       863      -7.6885E-04  7.4171E-03   0.000       0.000     
       864      -5.7058E-04  7.7239E-03   0.000       0.000     
       865      -3.7715E-04  7.9480E-03   0.000       0.000     
       866      -1.8753E-04  8.0844E-03   0.000       0.000     
       867        0.000      8.1303E-03 -8.3003E+04   0.000     
       868      -2.6298E-03   0.000       0.000     -1.1366E+07 
       870      -2.5537E-03  1.4795E-03   0.000       0.000     
       872      -2.3370E-03  2.9306E-03   0.000       0.000     
       874      -2.0113E-03  4.3159E-03   0.000       0.000     
       876      -1.6188E-03  5.5842E-03   0.000       0.000     
       878      -1.1998E-03  6.6741E-03   0.000       0.000     
       880      -7.8379E-04  7.5183E-03   0.000       0.000     
       882      -3.8496E-04  8.0543E-03   0.000       0.000     
       884        0.000      8.2383E-03 -1.6081E+05   0.000     
       885      -2.6603E-03   0.000       0.000     -5.6791E+06 
       886      -2.6410E-03  7.5300E-04   0.000       0.000     
       887      -2.5840E-03  1.5025E-03   0.000       0.000     
       888      -2.4913E-03  2.2448E-03   0.000       0.000     
       889      -2.3665E-03  2.9754E-03   0.000       0.000     
       890      -2.2141E-03  3.6892E-03   0.000       0.000     
       891      -2.0393E-03  4.3801E-03   0.000       0.000     
       892      -1.8473E-03  5.0411E-03   0.000       0.000     
       893      -1.6439E-03  5.6644E-03   0.000       0.000     
       894      -1.4337E-03  6.2425E-03   0.000       0.000     
       895      -1.2206E-03  6.7668E-03   0.000       0.000     
       896      -1.0081E-03  7.2286E-03   0.000       0.000     
       897      -7.9870E-04  7.6197E-03   0.000       0.000     
       898      -5.9355E-04  7.9326E-03   0.000       0.000     
       899      -3.9274E-04  8.1610E-03   0.000       0.000     
       900      -1.9541E-04  8.3000E-03   0.000       0.000     
       901        0.000      8.3467E-03 -7.8367E+04   0.000     
       902      -2.6910E-03   0.000       0.000     -1.1351E+07 
       904      -2.6144E-03  1.5255E-03   0.000       0.000     
       906      -2.3962E-03  3.0202E-03   0.000       0.000     
       908      -2.0673E-03  4.4443E-03   0.000       0.000     
       910      -1.6691E-03  5.7448E-03   0.000       0.000     
       912      -1.2414E-03  6.8598E-03   0.000       0.000     
       914      -8.1358E-04  7.7215E-03   0.000       0.000     
       916      -4.0050E-04  8.2680E-03   0.000       0.000     
       918        0.000      8.4554E-03 -1.5192E+05   0.000     
       919      -2.7219E-03   0.000       0.000     -5.6718E+06 
       920      -2.7025E-03  7.7618E-04   0.000       0.000     
       921      -2.6451E-03  1.5486E-03   0.000       0.000     
       922      -2.5517E-03  2.3131E-03   0.000       0.000     
       923      -2.4260E-03  3.0651E-03   0.000       0.000     
       924      -2.2721E-03  3.7991E-03   0.000       0.000     
       925      -2.0955E-03  4.5087E-03   0.000       0.000     
       926      -1.9009E-03  5.1868E-03   0.000       0.000     
       927      -1.6944E-03  5.8253E-03   0.000       0.000     
       928      -1.4802E-03  6.4168E-03   0.000       0.000     
       929      -1.2622E-03  6.9529E-03   0.000       0.000     
       930      -1.0441E-03  7.4243E-03   0.000       0.000     
       931      -8.2842E-04  7.8235E-03   0.000       0.000     
       932      -6.1637E-04  8.1425E-03   0.000       0.000     
       933      -4.0823E-04  8.3753E-03   0.000       0.000     
       934      -2.0323E-04  8.5169E-03   0.000       0.000     
       935        0.000      8.5645E-03 -7.4246E+04   0.000     
       936      -2.7529E-03   0.000       0.000     -1.1338E+07 
       938      -2.6758E-03  1.5716E-03   0.000       0.000     
       940      -2.4559E-03  3.1099E-03   0.000       0.000     
       942      -2.1237E-03  4.5730E-03   0.000       0.000     
       944      -1.7196E-03  5.9060E-03   0.000       0.000     
       946      -1.2830E-03  7.0462E-03   0.000       0.000     
       948      -8.4322E-04  7.9258E-03   0.000       0.000     
       950      -4.1595E-04  8.4828E-03   0.000       0.000     
       952        0.000      8.6738E-03 -1.4394E+05   0.000     
       953      -2.7840E-03   0.000       0.000     -5.6653E+06 
       954      -2.7645E-03  7.9937E-04   0.000       0.000     
       955      -2.7067E-03  1.5947E-03   0.000       0.000     
       956      -2.6126E-03  2.3815E-03   0.000       0.000     
       957      -2.4859E-03  3.1548E-03   0.000       0.000     
       958      -2.3305E-03  3.9091E-03   0.000       0.000     
       959      -2.1519E-03  4.6375E-03   0.000       0.000     
       960      -1.9547E-03  5.3330E-03   0.000       0.000     
       961      -1.7449E-03  5.9868E-03   0.000       0.000     
       962      -1.5268E-03  6.5918E-03   0.000       0.000     
       963      -1.3037E-03  7.1397E-03   0.000       0.000     
       964      -1.0801E-03  7.6210E-03   0.000       0.000     
       965      -8.5799E-04  8.0283E-03   0.000       0.000     
       966      -6.3907E-04  8.3534E-03   0.000       0.000     
       967      -4.2363E-04  8.5907E-03   0.000       0.000     
       968      -2.1100E-04  8.7350E-03   0.000       0.000     
       969        0.000      8.7834E-03 -7.0589E+04   0.000     
       970      -2.8153E-03   0.000       0.000     -1.1325E+07 
       972      -2.7377E-03  1.6177E-03   0.000       0.000     
       974      -2.5160E-03  3.1997E-03   0.000       0.000     
       976      -2.1803E-03  4.7020E-03   0.000       0.000     
       978      -1.7702E-03  6.0677E-03   0.000       0.000     
       980      -1.3244E-03  7.2334E-03   0.000       0.000     
       982      -8.7271E-04  8.1310E-03   0.000       0.000     
       984      -4.3130E-04  8.6988E-03   0.000       0.000     
       986        0.000      8.8933E-03 -1.3687E+05   0.000     
       987      -2.8467E-03   0.000       0.000     -5.6609E+06 
       988      -2.8270E-03  8.2256E-04   0.000       0.000     
       989      -2.7688E-03  1.6408E-03   0.000       0.000     
       990      -2.6739E-03  2.4499E-03   0.000       0.000     
       991      -2.5462E-03  3.2446E-03   0.000       0.000     
       992      -2.3891E-03  4.0194E-03   0.000       0.000     
       993      -2.2087E-03  4.7666E-03   0.000       0.000     
       994      -2.0086E-03  5.4797E-03   0.000       0.000     
       995      -1.7955E-03  6.1487E-03   0.000       0.000     
       996      -1.5734E-03  6.7673E-03   0.000       0.000     
       997      -1.3451E-03  7.3273E-03   0.000       0.000     
       998      -1.1159E-03  7.8183E-03   0.000       0.000     
       999      -8.8740E-04  8.2339E-03   0.000       0.000     
      1000      -6.6163E-04  8.5653E-03   0.000       0.000     
      1001      -4.3894E-04  8.8071E-03   0.000       0.000     
      1002      -2.1870E-04  8.9542E-03   0.000       0.000     
      1003        0.000      9.0035E-03 -6.6663E+04   0.000     
      1004      -2.8782E-03   0.000       0.000     -1.1313E+07 
      1006      -2.8000E-03  1.6638E-03   0.000       0.000     
      1008      -2.5765E-03  3.2895E-03   0.000       0.000     
      1010      -2.2372E-03  4.8310E-03   0.000       0.000     
      1012      -1.8209E-03  6.2299E-03   0.000       0.000     
      1014      -1.3656E-03  7.4213E-03   0.000       0.000     
      1016      -9.0199E-04  8.3371E-03   0.000       0.000     
      1018      -4.4653E-04  8.9157E-03   0.000       0.000     
      1020        0.000      9.1138E-03 -1.3075E+05   0.000     
      1021      -2.9098E-03   0.000       0.000     -1.0433E+08 
      1022      -2.8900E-03  8.4577E-04   0.000       0.000     
      1023      -2.8314E-03  1.6868E-03   0.000       0.000     
      1024      -2.7356E-03  2.5184E-03   0.000       0.000     
      1025      -2.6069E-03  3.3343E-03   0.000       0.000     
      1026      -2.4480E-03  4.1299E-03   0.000       0.000     
      1027      -2.2657E-03  4.8955E-03   0.000       0.000     
      1028      -2.0628E-03  5.6269E-03   0.000       0.000     
      1029      -1.8462E-03  6.3111E-03   0.000       0.000     
      1030      -1.6201E-03  6.9434E-03   0.000       0.000     
      1031      -1.3862E-03  7.5155E-03   0.000       0.000     
      1032      -1.1517E-03  8.0164E-03   0.000       0.000     
      1033      -9.1653E-04  8.4405E-03   0.000       0.000     
      1034      -6.8411E-04  8.7781E-03   0.000       0.000     
      1035      -4.5410E-04  9.0246E-03   0.000       0.000     
      1036      -2.2636E-04  9.1744E-03   0.000       0.000     
      1037        0.000      9.2245E-03 -1.2011E+06   0.000     
      1038      -4.1030E-03   0.000       0.000     -4.0371E+08 
      1040      -4.0330E-03  2.8161E-03   0.000       0.000     
      1042      -3.8399E-03  5.5943E-03   0.000       0.000     
      1044      -3.5596E-03  8.2821E-03   0.000       0.000     
      1046      -3.2237E-03  1.0817E-02   0.000       0.000     
      1048      -2.4399E-03  1.1836E-02   0.000       0.000     
      1050      -1.6259E-03  1.2629E-02   0.000       0.000     
      1052      -8.0890E-04  1.3141E-02   0.000       0.000     
      1054        0.000      1.3320E-02 -1.8847E+06   0.000     
      1055      -5.3433E-03   0.000       0.000     -2.0088E+08 
      1056      -5.3278E-03  1.9745E-03   0.000       0.000     
      1057      -5.2828E-03  3.9453E-03   0.000       0.000     
      1058      -5.2114E-03  5.9085E-03   0.000       0.000     
      1059      -5.1192E-03  7.8576E-03   0.000       0.000     
      1060      -5.0091E-03  9.7874E-03   0.000       0.000     
      1061      -4.8862E-03  1.1689E-02   0.000       0.000     
      1062      -4.7514E-03  1.3558E-02   0.000       0.000     
      1063      -4.6066E-03  1.5386E-02   0.000       0.000     
      1064      -4.0486E-03  1.5837E-02   0.000       0.000     
      1065      -3.4784E-03  1.6247E-02   0.000       0.000     
      1066      -2.9017E-03  1.6608E-02   0.000       0.000     
      1067      -2.3197E-03  1.6919E-02   0.000       0.000     
      1068      -1.7373E-03  1.7170E-02   0.000       0.000     
      1069      -1.1560E-03  1.7357E-02   0.000       0.000     
      1070      -5.7712E-04  1.7472E-02   0.000       0.000     
      1071        0.000      1.7511E-02 -5.5386E+05   0.000     
      1072      -6.6052E-03   0.000       0.000     -4.0136E+08 
      1074      -6.5533E-03  5.0750E-03   0.000       0.000     
      1076      -6.4144E-03  1.0122E-02   0.000       0.000     
      1078      -6.2179E-03  1.5099E-02   0.000       0.000     
      1080      -5.9803E-03  1.9961E-02   0.000       0.000     
      1082      -4.5081E-03  2.0683E-02   0.000       0.000     
      1084      -3.0072E-03  2.1246E-02   0.000       0.000     
      1086      -1.5001E-03  2.1615E-02   0.000       0.000     
      1088        0.000      2.1746E-02 -8.1889E+05   0.000     
      1089      -7.8775E-03   0.000       0.000     -2.0040E+08 
      1090      -7.8658E-03  3.1025E-03   0.000       0.000     
      1091      -7.8327E-03  6.2029E-03   0.000       0.000     
      1092      -7.7807E-03  9.2979E-03   0.000       0.000     
      1093      -7.7138E-03  1.2384E-02   0.000       0.000     
      1094      -7.6352E-03  1.5455E-02   0.000       0.000     
      1095      -7.5468E-03  1.8507E-02   0.000       0.000     
      1096      -7.4506E-03  2.1535E-02   0.000       0.000     
      1097      -7.3469E-03  2.4537E-02   0.000       0.000     
      1098      -6.4418E-03  2.4845E-02   0.000       0.000     
      1099      -5.5288E-03  2.5125E-02   0.000       0.000     
      1100      -4.6099E-03  2.5374E-02   0.000       0.000     
      1101      -3.6872E-03  2.5588E-02   0.000       0.000     
      1102      -2.7633E-03  2.5762E-02   0.000       0.000     
      1103      -1.8403E-03  2.5893E-02   0.000       0.000     
      1104      -9.1939E-04  2.5974E-02   0.000       0.000     
      1105        0.000      2.6001E-02 -3.9062E+05   0.000     
      1106      -9.1552E-03   0.000       0.000     -4.0036E+08 
      1108      -9.1161E-03  7.3284E-03   0.000       0.000     
      1110      -9.0135E-03  1.4641E-02   0.000       0.000     
      1112      -8.8721E-03  2.1910E-02   0.000       0.000     
      1114      -8.7048E-03  2.9108E-02   0.000       0.000     
      1116      -6.5412E-03  2.9568E-02   0.000       0.000     
      1118      -4.3602E-03  2.9934E-02   0.000       0.000     
      1120      -2.1767E-03  3.0180E-02   0.000       0.000     
      1122        0.000      3.0268E-02 -9.7786E+05   0.000     
      1123      -1.0436E-02   0.000       0.000     -1.9994E+08 
      1124      -1.0427E-02  4.2258E-03   0.000       0.000     
      1125      -1.0401E-02  8.4507E-03   0.000       0.000     
      1126      -1.0361E-02  1.2674E-02   0.000       0.000     
      1127      -1.0312E-02  1.6893E-02   0.000       0.000     
      1128      -1.0255E-02  2.1106E-02   0.000       0.000     
      1129      -1.0193E-02  2.5308E-02   0.000       0.000     
      1130      -1.0127E-02  2.9499E-02   0.000       0.000     
      1131      -1.0056E-02  3.3676E-02   0.000       0.000     
      1132      -8.8022E-03  3.3849E-02   0.000       0.000     
      1133      -7.5452E-03  3.4009E-02   0.000       0.000     
      1134      -6.2857E-03  3.4154E-02   0.000       0.000     
      1135      -5.0252E-03  3.4282E-02   0.000       0.000     
      1136      -3.7658E-03  3.4389E-02   0.000       0.000     
      1137      -2.5080E-03  3.4472E-02   0.000       0.000     
      1138      -1.2533E-03  3.4524E-02   0.000       0.000     
      1139        0.000      3.4542E-02 -6.4864E+05   0.000     
      1140      -1.1718E-02   0.000       0.000     -3.9928E+08 
      1142      -1.1686E-02  9.5689E-03   0.000       0.000     
      1144      -1.1607E-02  1.9140E-02   0.000       0.000     
      1146      -1.1511E-02  2.8702E-02   0.000       0.000     
      1148      -1.1403E-02  3.8242E-02   0.000       0.000     
      1150      -8.5417E-03  3.8448E-02   0.000       0.000     
      1152      -5.6810E-03  3.8628E-02   0.000       0.000     
      1154      -2.8328E-03  3.8765E-02   0.000       0.000     
      1156        0.000      3.8820E-02 -1.9264E+06   0.000     
      1157      -1.3000E-02   0.000       0.000     -9.9620E+07 
      1158      -1.2992E-02  5.3378E-03   0.000       0.000     
      1159      -1.2970E-02  1.0679E-02   0.000       0.000     
      1160      -1.2938E-02  1.6027E-02   0.000       0.000     
      1161      -1.2902E-02  2.1380E-02   0.000       0.000     
      1162      -1.2864E-02  2.6736E-02   0.000       0.000     
      1163      -1.2827E-02  3.2093E-02   0.000       0.000     
      1164      -1.2788E-02  3.7450E-02   0.000       0.000     
      1165      -1.2749E-02  4.2807E-02   0.000       0.000     
      1166      -1.1141E-02  4.2847E-02   0.000       0.000     
      1167      -9.5347E-03  4.2887E-02   0.000       0.000     
      1168      -7.9285E-03  4.2930E-02   0.000       0.000     
      1169      -6.3263E-03  4.2974E-02   0.000       0.000     
      1170      -4.7315E-03  4.3019E-02   0.000       0.000     
      1171      -3.1450E-03  4.3058E-02   0.000       0.000     
      1172      -1.5700E-03  4.3087E-02   0.000       0.000     
      1173        0.000      4.3097E-02 -7.1662E+05   0.000     

 MAXIMUM          0.000      4.3097E-02  7.5278E+06   0.000    
 AT NODE                17        1173          34           2

 MINIMUM        -1.3000E-02   0.000     -1.9264E+06 -4.0371E+08
 AT NODE              1157           1        1156        1038


          THE ANALYSIS HAS BEEN COMPLETED



                              ANALYSIS COMPLETE



     JOB TIME SUMMARY
       USER TIME (SEC)      =  0.30000    
       SYSTEM TIME (SEC)    =  0.20000    
       TOTAL CPU TIME (SEC) =  0.50000    
       WALLCLOCK TIME (SEC) =          1
