*Heading 
1-D Model of a Cantilever Beam: 2-noded elements  4 elements
*NODE
1,0.0,0.0
3,1.25,0.0
5,2.50,0.0
*NGEN
1,5
*ELEMENT,ELSET=ALL, TYPE=B23
1,1,2
*ELGEN, ELSET=ALL
1,4,1,1
*BEAM SECTION, SECTION=RECT, ELSET=ALL,MAT=METAL
0.025,0.05
*MATERIAL, NAME=METAL
*ELASTIC
100.E9,0.3
*BOUNDARY
1,1,2,0.0
1,6,6,0.0
5,1,2,0.0
5,6,6,0.0
*STEP,NLGEOM
0.2,1.0,1.e-6,1.0
*STATIC
*BOUNDARY
3,2,2,-0.0295
*NODE PRINT  
U,RF
*EL PRINT
S,E
*RESTART,WRITE
*END STEP 