1

  ABAQUS VERSION 6.4-1                                     DATE 27-Mar-2008   TIME 19:25:54        PAGE     1
 





    AAAAAA     BBBBBBBBB      AAAAAA      QQQQQQQQ    U        U    SSSSSSSS
   A      A    B        B    A      A    Q        Q   U        U   S
  A        A   B        B   A        A   Q        Q   U        U   S
  A        A   B        B   A        A   Q        Q   U        U   S
  AAAAAAAAAA   BBBBBBBBB    AAAAAAAAAA   Q        Q   U        U    SSSSSSSS
  A        A   B        B   A        A   Q    Q   Q   U        U            S
  A        A   B        B   A        A   Q     Q  Q   U        U            S
  A        A   B        B   A        A   Q      Q Q   U        U            S
  A        A   BBBBBBBBB    A        A    QQQQQQQQ     UUUUUUUU     SSSSSSSS
 



                      This program has been developed by
 
                                  ABAQUS, Inc.
                                1080 Main Street
                             Pawtucket, R.I. 02860
 


                   Available for internal use at University of Virginia. 
                   Support of your usage is not included in the license
                   price.  To purchase support, or send information to ABAQUS, Inc.
                   about a suspected error, please follow the procedures
                   described in the ABAQUS academic support instructions
                   document. A copy of this document has been sent to the
                   designated user at your site. Additional copies can be
                   obtained by contacting ABAQUS, Inc. or your local ABAQUS
                   representative.

                   Should you have any questions concerning the terms of
                   this academic license, please contact the designated
                   user at your university, Brad Sayler
 
                        On machine d107-12 
                        you are authorized to run
                        ABAQUS/Standard until 31-Dec-2008

                        Your site id is: 08UVA_X 


 
                    For assistance or any other information contact

                           ABAQUS, INC.
                           1080 Main Street
                           Pawtucket, RI 02860-4847
                           U.S.A.
                           Tel: (1) 401 727 4200
                           Fax: (1) 401 727 4208
                           E-mail: info@abaqus.com
                           Web: http://www.abaqus.com
                           Technical support: support@abaqus.com 


                * * * * * * * * * * * * * * * * * * * * * * * * * * * * * * 
                *                                                         * 
                *                   *****************                     * 
                *                   *  N O T I C E  *                     * 
                *                   *****************                     * 
                *                                                         * 
                *                                                         * 
                *                 ABAQUS VERSION 6.4-1                    * 
                *                                                         * 
                *          BUILD ID: 2003_09_29-11.18.28 46457            * 
                *                                                         * 
                *                                                         * 
                *  Please make sure you are using version 6.4 manuals     * 
                *  plus the notes accompanying this release.              * 
                *                                                         * 
                *                                                         * 
                *   This program may not be used for commercial purposes  * 
                *           without payment of a monthly charge.          * 
                *                                                         * 
                * * * * * * * * * * * * * * * * * * * * * * * * * * * * * * 


 



     PROCESSING PART, INSTANCE, AND ASSEMBLY INFORMATION
   *******************************************************


     END PROCESSING PART, INSTANCE, AND ASSEMBLY INFORMATION
   ***********************************************************




     OPTIONS BEING PROCESSED
   ***************************


  *Heading
          1-D Model of a Cantilever Beam: 2-noded elements  100 elements                                                                                                                                                                                                  
  *NODE
  *NGEN
  *ELEMENT,ELSET=ALL, TYPE=B23
  *ELGEN, ELSET=ALL
  *MATERIAL, NAME=METAL
  *ELASTIC
  *BOUNDARY
  *BOUNDARY
  *BEAM SECTION, SECTION=RECT, ELSET=ALL,MAT=METAL
  *STEP,NLGEOM
  *STEP,NLGEOM
  *STEP,NLGEOM
  0.2,1.0,1.e-6,1.0                                                               
  *STATIC
  *BOUNDARY
  *EL PRINT
  *END STEP
  *BOUNDARY
  *STEP,NLGEOM
  *STATIC
  *BOUNDARY
  *NODE PRINT
  *END STEP
1

   ABAQUS VERSION 6.4-1                                 DATE 27-Mar-2008       TIME 19:25:55        PAGE    2
   For use at None under academic license from ABAQUS, Inc.                                                                        

     1-D Model of a Cantilever Beam: 2-noded elements  100 elements                  



                            P R O B L E M   S I Z E


          NUMBER OF ELEMENTS IS                                   100
          NUMBER OF NODES IS                                      201
          NUMBER OF NODES DEFINED BY THE USER                     101
          NUMBER OF INTERNAL NODES GENERATED BY THE PROGRAM       100
          TOTAL NUMBER OF VARIABLES IN THE MODEL                  503
          (DEGREES OF FREEDOM PLUS ANY LAGRANGE MULTIPLIER VARIABLES)



                              END OF USER INPUT PROCESSING



     JOB TIME SUMMARY
       USER TIME (SEC)      =  0.30000    
       SYSTEM TIME (SEC)    =  0.10000    
       TOTAL CPU TIME (SEC) =  0.40000    
       WALLCLOCK TIME (SEC) =          1
1

   ABAQUS VERSION 6.4-1                                     DATE 27-Mar-2008   TIME 19:25:56        PAGE    1
   For use at None under academic license from ABAQUS, Inc.                                                                        

     1-D Model of a Cantilever Beam: 2-noded elements  100 elements                            STEP    1  INCREMENT    1
     0.2,1.0,1.e-6,1.0                                                                    TIME COMPLETED IN THIS STEP   0.00    


                        S T E P       1     S T A T I C   A N A L Y S I S


          0.2,1.0,1.e-6,1.0                                                               

     AUTOMATIC TIME CONTROL WITH -
          A SUGGESTED INITIAL TIME INCREMENT OF                 1.00    
          AND A TOTAL TIME PERIOD OF                            1.00    
          THE MINIMUM TIME INCREMENT ALLOWED IS                1.000E-05
          THE MAXIMUM TIME INCREMENT ALLOWED IS                 1.00    

     LINEAR EQUATION SOLVER TYPE         DIRECT SPARSE

          LARGE DISPLACEMENT THEORY WILL BE USED
  
  
  
                   M E M O R Y   A N D   D I S K   E S T I M A T E
  
  
           SUMMARY FOR CURRENT NODE ORDERING
          (NOTE THAT IF NODE ORDERING CHANGES THE SIZE ESTIMATES FOR THE STEPS WILL CHANGE)
  
  
           STEP   MAXIMUM DOF     FLOATING PT    MINIMUM MEMORY      MEMORY TO      REQUIRED DISKSPACE
                  WAVEFRONT       OPERATIONS       REQUIRED        MINIMIZE I/O
                                PER ITERATION     (MBYTES)           (MBYTES)          (KBYTES)
  
             1           9        2.91E+004         14.61              14.61             70.16
          ----    ---------      ------------    -------------     -------------      -------------
           MAX           9        2.91E+004         14.61              14.61             70.16
  
  
          THE TABLE ABOVE PROVIDES A STEP BY STEP SUMMARY OF SOME BASIC SIZING INFORMATION
          FOR THE PROBLEM. SOME FURTHER DESCRIPTION OF THE PARAMETERS GIVEN FOLLOWS:
  
          (1) MAXIMUM DOF WAVEFRONT - SIZE OF THE BIGGEST FRONT IN THE EQUATION SOLVER.
              PROVIDES A BASIC SIZING OF THE MOST MEMORY INTENSIVE SEGMENT OF SOLVER.
          (2) FLOATING POINT OPERATIONS PER ITERATION - MEASURE OF THE NUMBER OF FLOATING
              POINT OPERATIONS REQUIRED FOR A SINGLE SOLVER PASS. ON A GIVEN PLATFORM
              THE TIME REQUIRED FOR A SOLVER PASS WILL BE ROUGHLY A LINEAR FUNCTION
              OF THIS VALUE.
              NOTE - EXCEPT FOR THE FIRST STEP, THE VALUE IN THIS TABLE DOES NOT INCLUDE
                     ADDITIONAL FLOATING POINT OPERATIONS THAT ARE REQUIRED IN MULTIPLE LOAD
                     CASE STEPS WHEN CONSTRAINTS CHANGE FROM LOAD CASE TO LOAD CASE.  THIS
                     SITUATION CAUSES A REORDERING TO BE PERFORMED, AT WHICH TIME AN UPPER
                     BOUND ON THE NUMBER OF ADDITIONAL FLOATING POINT OPERATIONS WILL BE
                     CALCULATED AND INCLUDED UNDER THE ESTIMATE SUMMARIES FOR THE RELEVANT
                     STEPS (SEE NOTE BELOW ON REORDERING).
          (3) MINIMUM MEMORY REQUIRED - MINIMUM POSSIBLE MEMORY VALUE FOR standard_memory
              THAT ENABLES ABAQUS TO SOLVE THE PROBLEM. USE OF MEMORY WILL BE MINIMIZED BY
              WRITING AS MUCH INFORMATION AS POSSIBLE TO DISK WHICH WILL INCREASE I/O TIME.
          (4) MEMORY TO MINIMIZE I/O - VALUE OF standard_memory THAT ALLOWS ABAQUS TO KEEP
              ALL SIGNIFICANT SCRATCH FILES IN MEMORY. THIS WILL MINIMIZE I/O TIME FOR THE USER
              WITH ACCESS TO A LARGE AMOUNT OF MEMORY.
          (5) REQUIRED DISKSPACE - AMOUNT OF DISK REQUIRED FOR SCRATCH FILES. THESE WILL BE
              DELETED AT THE END OF THE ANALYSIS.
  
  
           NOTE - WHENEVER POSSIBLE THE USER SHOULD SET standard_memory TO BE LESS THAN THE
          PHYSICAL MEMORY ON THE MACHINE. UNLESS NECESSARY USERS SHOULD NOT MAKE USE
          OF VIRTUAL MEMORY EVEN IN AN ATTEMPT TO KEEP SCRATCH FILES IN MEMORY.
  
           NOTE - IF A REORDERING IS PERFORMED (THIS WILL GENERALLY BE DONE ONLY FOR 3D-3D
          LARGE SLIDING PROBLEMS), THE SIZE ESTIMATES DONE AT THIS TIME WILL NO LONGER BE VALID.
          THE ESTIMATES WILL BE REDONE IN THE EVENT OF A REORDERING AND A NEW SUMMARY WILL BE
          BE PRINTED FOR THE REMAINING STEPS.
  
  
  
           S I Z E   E S T I M A T E S   F O R   C U R R E N T   S T E P
  
          NUMBER OF EQUATIONS                        503
          MAX DOF WAVEFRONT                          9
          FLOATING POINT OPS PER SOLVER ITERATION   2.91E+004
          MEMORY USED FOR STEP                      14.67 MBYTES
  
  
           ESTIMATED FILE SIZES
  
           FILE           KWORDS           KBYTES
  
          .fct             3.780           29.531
          .nck             0.800            6.250
          .opr             4.400           34.375
          -------        -------          -------
           TOTAL           8.980           70.156
  


                                INCREMENT     1 SUMMARY


 TIME INCREMENT COMPLETED   1.00    ,  FRACTION OF STEP COMPLETED   1.00    
 STEP TIME COMPLETED        1.00    ,  TOTAL TIME COMPLETED         1.00    



                                                  E L E M E N T   O U T P U T





   THE FOLLOWING TABLE IS PRINTED FOR ALL ELEMENTS WITH TYPE B23 AT THE INTEGRATION POINTS

    ELEMENT  PT SEC FOOT-   S11         E11     
                 PT NOTE 

          1   1  1     -1.0448E+07 -1.0448E-04  
          1   1  5      1.3132E+07  1.3132E-04  
          1   2  1     -1.0230E+07 -1.0230E-04  
          1   2  5      1.2914E+07  1.2914E-04  
          1   3  1     -1.0011E+07 -1.0011E-04  
          1   3  5      1.2696E+07  1.2696E-04  
          2   1  1     -9.8858E+06 -9.8858E-05  
          2   1  5      1.2570E+07  1.2570E-04  
          2   2  1     -9.6717E+06 -9.6717E-05  
          2   2  5      1.2356E+07  1.2356E-04  
          2   3  1     -9.4577E+06 -9.4577E-05  
          2   3  5      1.2142E+07  1.2142E-04  
          3   1  1     -9.3345E+06 -9.3345E-05  
          3   1  5      1.2019E+07  1.2019E-04  
          3   2  1     -9.1244E+06 -9.1244E-05  
          3   2  5      1.1809E+07  1.1809E-04  
          3   3  1     -8.9145E+06 -8.9145E-05  
          3   3  5      1.1599E+07  1.1599E-04  
          4   1  1     -8.7937E+06 -8.7937E-05  
          4   1  5      1.1478E+07  1.1478E-04  
          4   2  1     -8.5876E+06 -8.5876E-05  
          4   2  5      1.1272E+07  1.1272E-04  
          4   3  1     -8.3816E+06 -8.3816E-05  
          4   3  5      1.1067E+07  1.1067E-04  
          5   1  1     -8.2630E+06 -8.2630E-05  
          5   1  5      1.0947E+07  1.0947E-04  
          5   2  1     -8.0606E+06 -8.0606E-05  
          5   2  5      1.0746E+07  1.0746E-04  
          5   3  1     -7.8585E+06 -7.8585E-05  
          5   3  5      1.0544E+07  1.0544E-04  
          6   1  1     -7.7421E+06 -7.7421E-05  
          6   1  5      1.0427E+07  1.0427E-04  
          6   2  1     -7.5432E+06 -7.5432E-05  
          6   2  5      1.0228E+07  1.0228E-04  
          6   3  1     -7.3447E+06 -7.3447E-05  
          6   3  5      1.0030E+07  1.0030E-04  
          7   1  1     -7.2303E+06 -7.2303E-05  
          7   1  5      9.9149E+06  9.9149E-05  
          7   2  1     -7.0349E+06 -7.0349E-05  
          7   2  5      9.7201E+06  9.7201E-05  
          7   3  1     -6.8398E+06 -6.8398E-05  
          7   3  5      9.5250E+06  9.5250E-05  
          8   1  1     -6.7274E+06 -6.7274E-05  
          8   1  5      9.4120E+06  9.4120E-05  
          8   2  1     -6.5352E+06 -6.5352E-05  
          8   2  5      9.2204E+06  9.2204E-05  
          8   3  1     -6.3433E+06 -6.3433E-05  
          8   3  5      9.0286E+06  9.0286E-05  
          9   1  1     -6.2327E+06 -6.2327E-05  
          9   1  5      8.9174E+06  8.9174E-05  
          9   2  1     -6.0436E+06 -6.0436E-05  
          9   2  5      8.7288E+06  8.7288E-05  
          9   3  1     -5.8548E+06 -5.8548E-05  
          9   3  5      8.5400E+06  8.5400E-05  
         10   1  1     -5.7458E+06 -5.7458E-05  
         10   1  5      8.4306E+06  8.4306E-05  
         10   2  1     -5.5596E+06 -5.5596E-05  
         10   2  5      8.2448E+06  8.2448E-05  
         10   3  1     -5.3736E+06 -5.3736E-05  
         10   3  5      8.0588E+06  8.0588E-05  
         11   1  1     -5.2662E+06 -5.2662E-05  
         11   1  5      7.9511E+06  7.9511E-05  
         11   2  1     -5.0827E+06 -5.0827E-05  
         11   2  5      7.7678E+06  7.7678E-05  
         11   3  1     -4.8993E+06 -4.8993E-05  
         11   3  5      7.5845E+06  7.5845E-05  
         12   1  1     -4.7934E+06 -4.7934E-05  
         12   1  5      7.4783E+06  7.4783E-05  
         12   2  1     -4.6124E+06 -4.6124E-05  
         12   2  5      7.2975E+06  7.2975E-05  
         12   3  1     -4.4314E+06 -4.4314E-05  
         12   3  5      7.1166E+06  7.1166E-05  
         13   1  1     -4.3268E+06 -4.3268E-05  
         13   1  5      7.0118E+06  7.0118E-05  
         13   2  1     -4.1481E+06 -4.1481E-05  
         13   2  5      6.8332E+06  6.8332E-05  
         13   3  1     -3.9694E+06 -3.9694E-05  
         13   3  5      6.6545E+06  6.6545E-05  
         14   1  1     -3.8660E+06 -3.8660E-05  
         14   1  5      6.5511E+06  6.5511E-05  
         14   2  1     -3.6893E+06 -3.6893E-05  
         14   2  5      6.3745E+06  6.3745E-05  
         14   3  1     -3.5127E+06 -3.5127E-05  
         14   3  5      6.1978E+06  6.1978E-05  
         15   1  1     -3.4104E+06 -3.4104E-05  
         15   1  5      6.0956E+06  6.0956E-05  
         15   2  1     -3.2356E+06 -3.2356E-05  
         15   2  5      5.9208E+06  5.9208E-05  
         15   3  1     -3.0608E+06 -3.0608E-05  
         15   3  5      5.7459E+06  5.7459E-05  
         16   1  1     -2.9596E+06 -2.9596E-05  
         16   1  5      5.6448E+06  5.6448E-05  
         16   2  1     -2.7864E+06 -2.7864E-05  
         16   2  5      5.4717E+06  5.4717E-05  
         16   3  1     -2.6133E+06 -2.6133E-05  
         16   3  5      5.2984E+06  5.2984E-05  
         17   1  1     -2.5130E+06 -2.5130E-05  
         17   1  5      5.1983E+06  5.1983E-05  
         17   2  1     -2.3412E+06 -2.3412E-05  
         17   2  5      5.0266E+06  5.0266E-05  
         17   3  1     -2.1696E+06 -2.1696E-05  
         17   3  5      4.8548E+06  4.8548E-05  
         18   1  1     -2.0701E+06 -2.0701E-05  
         18   1  5      4.7555E+06  4.7555E-05  
         18   2  1     -1.8996E+06 -1.8996E-05  
         18   2  5      4.5851E+06  4.5851E-05  
         18   3  1     -1.7293E+06 -1.7293E-05  
         18   3  5      4.4146E+06  4.4146E-05  
         19   1  1     -1.6305E+06 -1.6305E-05  
         19   1  5      4.3160E+06  4.3160E-05  
         19   2  1     -1.4611E+06 -1.4611E-05  
         19   2  5      4.1468E+06  4.1468E-05  
         19   3  1     -1.2919E+06 -1.2919E-05  
         19   3  5      3.9773E+06  3.9773E-05  
         20   1  1     -1.1938E+06 -1.1938E-05  
         20   1  5      3.8793E+06  3.8793E-05  
         20   2  1     -1.0252E+06 -1.0252E-05  
         20   2  5      3.7111E+06  3.7111E-05  
         20   3  1     -8.5704E+05 -8.5704E-06  
         20   3  5      3.5425E+06  3.5425E-05  
         21   1  1     -7.5943E+05 -7.5943E-06  
         21   1  5      3.4450E+06  3.4450E-05  
         21   2  1     -5.9160E+05 -5.9160E-06  
         21   2  5      3.2776E+06  3.2776E-05  
         21   3  1     -4.2421E+05 -4.2421E-06  
         21   3  5      3.1097E+06  3.1097E-05  
         22   1  1     -3.2705E+05 -3.2705E-06  
         22   1  5      3.0127E+06  3.0127E-05  
         22   2  1     -1.5979E+05 -1.5979E-06  
         22   2  5      2.8459E+06  2.8459E-05  
         22   3  1       6966.      6.9662E-08  
         22   3  5      2.6786E+06  2.6786E-05  
         23   1  1      1.0379E+05  1.0379E-06  
         23   1  5      2.5819E+06  2.5819E-05  
         23   2  1      2.7063E+05  2.7063E-06  
         23   2  5      2.4156E+06  2.4156E-05  
         23   3  1      4.3691E+05  4.3691E-06  
         23   3  5      2.2487E+06  2.2487E-05  
         24   1  1      5.3347E+05  5.3347E-06  
         24   1  5      2.1522E+06  2.1522E-05  
         24   2  1      7.0005E+05  7.0005E-06  
         24   2  5      1.9862E+06  1.9862E-05  
         24   3  1      8.6602E+05  8.6602E-06  
         24   3  5      1.8196E+06  1.8196E-05  
         25   1  1      9.6242E+05  9.6242E-06  
         25   1  5      1.7233E+06  1.7233E-05  
         25   2  1      1.1289E+06  1.1289E-05  
         25   2  5      1.5575E+06  1.5575E-05  
         25   3  1      1.2947E+06  1.2947E-05  
         25   3  5      1.3910E+06  1.3910E-05  
         26   1  1      1.3910E+06  1.3910E-05  
         26   1  5      1.2947E+06  1.2947E-05  
         26   2  1      1.5575E+06  1.5575E-05  
         26   2  5      1.1289E+06  1.1289E-05  
         26   3  1      1.7233E+06  1.7233E-05  
         26   3  5      9.6242E+05  9.6242E-06  
         27   1  1      1.8196E+06  1.8196E-05  
         27   1  5      8.6602E+05  8.6602E-06  
         27   2  1      1.9862E+06  1.9862E-05  
         27   2  5      7.0005E+05  7.0005E-06  
         27   3  1      2.1522E+06  2.1522E-05  
         27   3  5      5.3347E+05  5.3347E-06  
         28   1  1      2.2487E+06  2.2487E-05  
         28   1  5      4.3691E+05  4.3691E-06  
         28   2  1      2.4156E+06  2.4156E-05  
         28   2  5      2.7063E+05  2.7063E-06  
         28   3  1      2.5819E+06  2.5819E-05  
         28   3  5      1.0379E+05  1.0379E-06  
         29   1  1      2.6786E+06  2.6786E-05  
         29   1  5       6966.      6.9662E-08  
         29   2  1      2.8459E+06  2.8459E-05  
         29   2  5     -1.5979E+05 -1.5979E-06  
         29   3  1      3.0127E+06  3.0127E-05  
         29   3  5     -3.2705E+05 -3.2705E-06  
         30   1  1      3.1097E+06  3.1097E-05  
         30   1  5     -4.2421E+05 -4.2421E-06  
         30   2  1      3.2776E+06  3.2776E-05  
         30   2  5     -5.9160E+05 -5.9160E-06  
         30   3  1      3.4450E+06  3.4450E-05  
         30   3  5     -7.5943E+05 -7.5943E-06  
         31   1  1      3.5425E+06  3.5425E-05  
         31   1  5     -8.5704E+05 -8.5704E-06  
         31   2  1      3.7111E+06  3.7111E-05  
         31   2  5     -1.0252E+06 -1.0252E-05  
         31   3  1      3.8793E+06  3.8793E-05  
         31   3  5     -1.1938E+06 -1.1938E-05  
         32   1  1      3.9773E+06  3.9773E-05  
         32   1  5     -1.2919E+06 -1.2919E-05  
         32   2  1      4.1468E+06  4.1468E-05  
         32   2  5     -1.4611E+06 -1.4611E-05  
         32   3  1      4.3160E+06  4.3160E-05  
         32   3  5     -1.6305E+06 -1.6305E-05  
         33   1  1      4.4146E+06  4.4146E-05  
         33   1  5     -1.7293E+06 -1.7293E-05  
         33   2  1      4.5851E+06  4.5851E-05  
         33   2  5     -1.8996E+06 -1.8996E-05  
         33   3  1      4.7555E+06  4.7555E-05  
         33   3  5     -2.0701E+06 -2.0701E-05  
         34   1  1      4.8548E+06  4.8548E-05  
         34   1  5     -2.1696E+06 -2.1696E-05  
         34   2  1      5.0266E+06  5.0266E-05  
         34   2  5     -2.3412E+06 -2.3412E-05  
         34   3  1      5.1983E+06  5.1983E-05  
         34   3  5     -2.5130E+06 -2.5130E-05  
         35   1  1      5.2984E+06  5.2984E-05  
         35   1  5     -2.6133E+06 -2.6133E-05  
         35   2  1      5.4717E+06  5.4717E-05  
         35   2  5     -2.7864E+06 -2.7864E-05  
         35   3  1      5.6448E+06  5.6448E-05  
         35   3  5     -2.9596E+06 -2.9596E-05  
         36   1  1      5.7459E+06  5.7459E-05  
         36   1  5     -3.0608E+06 -3.0608E-05  
         36   2  1      5.9208E+06  5.9208E-05  
         36   2  5     -3.2356E+06 -3.2356E-05  
         36   3  1      6.0956E+06  6.0956E-05  
         36   3  5     -3.4104E+06 -3.4104E-05  
         37   1  1      6.1978E+06  6.1978E-05  
         37   1  5     -3.5127E+06 -3.5127E-05  
         37   2  1      6.3745E+06  6.3745E-05  
         37   2  5     -3.6893E+06 -3.6893E-05  
         37   3  1      6.5511E+06  6.5511E-05  
         37   3  5     -3.8660E+06 -3.8660E-05  
         38   1  1      6.6545E+06  6.6545E-05  
         38   1  5     -3.9694E+06 -3.9694E-05  
         38   2  1      6.8332E+06  6.8332E-05  
         38   2  5     -4.1481E+06 -4.1481E-05  
         38   3  1      7.0118E+06  7.0118E-05  
         38   3  5     -4.3268E+06 -4.3268E-05  
         39   1  1      7.1166E+06  7.1166E-05  
         39   1  5     -4.4314E+06 -4.4314E-05  
         39   2  1      7.2975E+06  7.2975E-05  
         39   2  5     -4.6124E+06 -4.6124E-05  
         39   3  1      7.4783E+06  7.4783E-05  
         39   3  5     -4.7934E+06 -4.7934E-05  
         40   1  1      7.5845E+06  7.5845E-05  
         40   1  5     -4.8993E+06 -4.8993E-05  
         40   2  1      7.7678E+06  7.7678E-05  
         40   2  5     -5.0827E+06 -5.0827E-05  
         40   3  1      7.9511E+06  7.9511E-05  
         40   3  5     -5.2662E+06 -5.2662E-05  
         41   1  1      8.0588E+06  8.0588E-05  
         41   1  5     -5.3736E+06 -5.3736E-05  
         41   2  1      8.2448E+06  8.2448E-05  
         41   2  5     -5.5596E+06 -5.5596E-05  
         41   3  1      8.4306E+06  8.4306E-05  
         41   3  5     -5.7458E+06 -5.7458E-05  
         42   1  1      8.5400E+06  8.5400E-05  
         42   1  5     -5.8548E+06 -5.8548E-05  
         42   2  1      8.7288E+06  8.7288E-05  
         42   2  5     -6.0436E+06 -6.0436E-05  
         42   3  1      8.9174E+06  8.9174E-05  
         42   3  5     -6.2327E+06 -6.2327E-05  
         43   1  1      9.0286E+06  9.0286E-05  
         43   1  5     -6.3433E+06 -6.3433E-05  
         43   2  1      9.2204E+06  9.2204E-05  
         43   2  5     -6.5352E+06 -6.5352E-05  
         43   3  1      9.4120E+06  9.4120E-05  
         43   3  5     -6.7274E+06 -6.7274E-05  
         44   1  1      9.5250E+06  9.5250E-05  
         44   1  5     -6.8398E+06 -6.8398E-05  
         44   2  1      9.7201E+06  9.7201E-05  
         44   2  5     -7.0349E+06 -7.0349E-05  
         44   3  1      9.9149E+06  9.9149E-05  
         44   3  5     -7.2303E+06 -7.2303E-05  
         45   1  1      1.0030E+07  1.0030E-04  
         45   1  5     -7.3447E+06 -7.3447E-05  
         45   2  1      1.0228E+07  1.0228E-04  
         45   2  5     -7.5432E+06 -7.5432E-05  
         45   3  1      1.0427E+07  1.0427E-04  
         45   3  5     -7.7421E+06 -7.7421E-05  
         46   1  1      1.0544E+07  1.0544E-04  
         46   1  5     -7.8585E+06 -7.8585E-05  
         46   2  1      1.0746E+07  1.0746E-04  
         46   2  5     -8.0606E+06 -8.0606E-05  
         46   3  1      1.0947E+07  1.0947E-04  
         46   3  5     -8.2630E+06 -8.2630E-05  
         47   1  1      1.1067E+07  1.1067E-04  
         47   1  5     -8.3816E+06 -8.3816E-05  
         47   2  1      1.1272E+07  1.1272E-04  
         47   2  5     -8.5876E+06 -8.5876E-05  
         47   3  1      1.1478E+07  1.1478E-04  
         47   3  5     -8.7937E+06 -8.7937E-05  
         48   1  1      1.1599E+07  1.1599E-04  
         48   1  5     -8.9145E+06 -8.9145E-05  
         48   2  1      1.1809E+07  1.1809E-04  
         48   2  5     -9.1244E+06 -9.1244E-05  
         48   3  1      1.2019E+07  1.2019E-04  
         48   3  5     -9.3345E+06 -9.3345E-05  
         49   1  1      1.2142E+07  1.2142E-04  
         49   1  5     -9.4577E+06 -9.4577E-05  
         49   2  1      1.2356E+07  1.2356E-04  
         49   2  5     -9.6717E+06 -9.6717E-05  
         49   3  1      1.2570E+07  1.2570E-04  
         49   3  5     -9.8858E+06 -9.8858E-05  
         50   1  1      1.2696E+07  1.2696E-04  
         50   1  5     -1.0011E+07 -1.0011E-04  
         50   2  1      1.2914E+07  1.2914E-04  
         50   2  5     -1.0230E+07 -1.0230E-04  
         50   3  1      1.3132E+07  1.3132E-04  
         50   3  5     -1.0448E+07 -1.0448E-04  
         51   1  1      1.3132E+07  1.3132E-04  
         51   1  5     -1.0448E+07 -1.0448E-04  
         51   2  1      1.2914E+07  1.2914E-04  
         51   2  5     -1.0230E+07 -1.0230E-04  
         51   3  1      1.2696E+07  1.2696E-04  
         51   3  5     -1.0011E+07 -1.0011E-04  
         52   1  1      1.2570E+07  1.2570E-04  
         52   1  5     -9.8858E+06 -9.8858E-05  
         52   2  1      1.2356E+07  1.2356E-04  
         52   2  5     -9.6717E+06 -9.6717E-05  
         52   3  1      1.2142E+07  1.2142E-04  
         52   3  5     -9.4577E+06 -9.4577E-05  
         53   1  1      1.2019E+07  1.2019E-04  
         53   1  5     -9.3345E+06 -9.3345E-05  
         53   2  1      1.1809E+07  1.1809E-04  
         53   2  5     -9.1244E+06 -9.1244E-05  
         53   3  1      1.1599E+07  1.1599E-04  
         53   3  5     -8.9145E+06 -8.9145E-05  
         54   1  1      1.1478E+07  1.1478E-04  
         54   1  5     -8.7937E+06 -8.7937E-05  
         54   2  1      1.1272E+07  1.1272E-04  
         54   2  5     -8.5876E+06 -8.5876E-05  
         54   3  1      1.1067E+07  1.1067E-04  
         54   3  5     -8.3816E+06 -8.3816E-05  
         55   1  1      1.0947E+07  1.0947E-04  
         55   1  5     -8.2630E+06 -8.2630E-05  
         55   2  1      1.0746E+07  1.0746E-04  
         55   2  5     -8.0606E+06 -8.0606E-05  
         55   3  1      1.0544E+07  1.0544E-04  
         55   3  5     -7.8585E+06 -7.8585E-05  
         56   1  1      1.0427E+07  1.0427E-04  
         56   1  5     -7.7421E+06 -7.7421E-05  
         56   2  1      1.0228E+07  1.0228E-04  
         56   2  5     -7.5432E+06 -7.5432E-05  
         56   3  1      1.0030E+07  1.0030E-04  
         56   3  5     -7.3447E+06 -7.3447E-05  
         57   1  1      9.9149E+06  9.9149E-05  
         57   1  5     -7.2303E+06 -7.2303E-05  
         57   2  1      9.7201E+06  9.7201E-05  
         57   2  5     -7.0349E+06 -7.0349E-05  
         57   3  1      9.5250E+06  9.5250E-05  
         57   3  5     -6.8398E+06 -6.8398E-05  
         58   1  1      9.4120E+06  9.4120E-05  
         58   1  5     -6.7274E+06 -6.7274E-05  
         58   2  1      9.2204E+06  9.2204E-05  
         58   2  5     -6.5352E+06 -6.5352E-05  
         58   3  1      9.0286E+06  9.0286E-05  
         58   3  5     -6.3433E+06 -6.3433E-05  
         59   1  1      8.9174E+06  8.9174E-05  
         59   1  5     -6.2327E+06 -6.2327E-05  
         59   2  1      8.7288E+06  8.7288E-05  
         59   2  5     -6.0436E+06 -6.0436E-05  
         59   3  1      8.5400E+06  8.5400E-05  
         59   3  5     -5.8548E+06 -5.8548E-05  
         60   1  1      8.4306E+06  8.4306E-05  
         60   1  5     -5.7458E+06 -5.7458E-05  
         60   2  1      8.2448E+06  8.2448E-05  
         60   2  5     -5.5596E+06 -5.5596E-05  
         60   3  1      8.0588E+06  8.0588E-05  
         60   3  5     -5.3736E+06 -5.3736E-05  
         61   1  1      7.9511E+06  7.9511E-05  
         61   1  5     -5.2662E+06 -5.2662E-05  
         61   2  1      7.7678E+06  7.7678E-05  
         61   2  5     -5.0827E+06 -5.0827E-05  
         61   3  1      7.5845E+06  7.5845E-05  
         61   3  5     -4.8993E+06 -4.8993E-05  
         62   1  1      7.4783E+06  7.4783E-05  
         62   1  5     -4.7934E+06 -4.7934E-05  
         62   2  1      7.2975E+06  7.2975E-05  
         62   2  5     -4.6124E+06 -4.6124E-05  
         62   3  1      7.1166E+06  7.1166E-05  
         62   3  5     -4.4314E+06 -4.4314E-05  
         63   1  1      7.0118E+06  7.0118E-05  
         63   1  5     -4.3268E+06 -4.3268E-05  
         63   2  1      6.8332E+06  6.8332E-05  
         63   2  5     -4.1481E+06 -4.1481E-05  
         63   3  1      6.6545E+06  6.6545E-05  
         63   3  5     -3.9694E+06 -3.9694E-05  
         64   1  1      6.5511E+06  6.5511E-05  
         64   1  5     -3.8660E+06 -3.8660E-05  
         64   2  1      6.3745E+06  6.3745E-05  
         64   2  5     -3.6893E+06 -3.6893E-05  
         64   3  1      6.1978E+06  6.1978E-05  
         64   3  5     -3.5127E+06 -3.5127E-05  
         65   1  1      6.0956E+06  6.0956E-05  
         65   1  5     -3.4104E+06 -3.4104E-05  
         65   2  1      5.9208E+06  5.9208E-05  
         65   2  5     -3.2356E+06 -3.2356E-05  
         65   3  1      5.7459E+06  5.7459E-05  
         65   3  5     -3.0608E+06 -3.0608E-05  
         66   1  1      5.6448E+06  5.6448E-05  
         66   1  5     -2.9596E+06 -2.9596E-05  
         66   2  1      5.4717E+06  5.4717E-05  
         66   2  5     -2.7864E+06 -2.7864E-05  
         66   3  1      5.2984E+06  5.2984E-05  
         66   3  5     -2.6133E+06 -2.6133E-05  
         67   1  1      5.1983E+06  5.1983E-05  
         67   1  5     -2.5130E+06 -2.5130E-05  
         67   2  1      5.0266E+06  5.0266E-05  
         67   2  5     -2.3412E+06 -2.3412E-05  
         67   3  1      4.8548E+06  4.8548E-05  
         67   3  5     -2.1696E+06 -2.1696E-05  
         68   1  1      4.7555E+06  4.7555E-05  
         68   1  5     -2.0701E+06 -2.0701E-05  
         68   2  1      4.5851E+06  4.5851E-05  
         68   2  5     -1.8996E+06 -1.8996E-05  
         68   3  1      4.4146E+06  4.4146E-05  
         68   3  5     -1.7293E+06 -1.7293E-05  
         69   1  1      4.3160E+06  4.3160E-05  
         69   1  5     -1.6305E+06 -1.6305E-05  
         69   2  1      4.1468E+06  4.1468E-05  
         69   2  5     -1.4611E+06 -1.4611E-05  
         69   3  1      3.9773E+06  3.9773E-05  
         69   3  5     -1.2919E+06 -1.2919E-05  
         70   1  1      3.8793E+06  3.8793E-05  
         70   1  5     -1.1938E+06 -1.1938E-05  
         70   2  1      3.7111E+06  3.7111E-05  
         70   2  5     -1.0252E+06 -1.0252E-05  
         70   3  1      3.5425E+06  3.5425E-05  
         70   3  5     -8.5704E+05 -8.5704E-06  
         71   1  1      3.4450E+06  3.4450E-05  
         71   1  5     -7.5943E+05 -7.5943E-06  
         71   2  1      3.2776E+06  3.2776E-05  
         71   2  5     -5.9160E+05 -5.9160E-06  
         71   3  1      3.1097E+06  3.1097E-05  
         71   3  5     -4.2421E+05 -4.2421E-06  
         72   1  1      3.0127E+06  3.0127E-05  
         72   1  5     -3.2705E+05 -3.2705E-06  
         72   2  1      2.8459E+06  2.8459E-05  
         72   2  5     -1.5979E+05 -1.5979E-06  
         72   3  1      2.6786E+06  2.6786E-05  
         72   3  5       6966.      6.9662E-08  
         73   1  1      2.5819E+06  2.5819E-05  
         73   1  5      1.0379E+05  1.0379E-06  
         73   2  1      2.4156E+06  2.4156E-05  
         73   2  5      2.7063E+05  2.7063E-06  
         73   3  1      2.2487E+06  2.2487E-05  
         73   3  5      4.3691E+05  4.3691E-06  
         74   1  1      2.1522E+06  2.1522E-05  
         74   1  5      5.3347E+05  5.3347E-06  
         74   2  1      1.9862E+06  1.9862E-05  
         74   2  5      7.0005E+05  7.0005E-06  
         74   3  1      1.8196E+06  1.8196E-05  
         74   3  5      8.6602E+05  8.6602E-06  
         75   1  1      1.7233E+06  1.7233E-05  
         75   1  5      9.6242E+05  9.6242E-06  
         75   2  1      1.5575E+06  1.5575E-05  
         75   2  5      1.1289E+06  1.1289E-05  
         75   3  1      1.3910E+06  1.3910E-05  
         75   3  5      1.2947E+06  1.2947E-05  
         76   1  1      1.2947E+06  1.2947E-05  
         76   1  5      1.3910E+06  1.3910E-05  
         76   2  1      1.1289E+06  1.1289E-05  
         76   2  5      1.5575E+06  1.5575E-05  
         76   3  1      9.6242E+05  9.6242E-06  
         76   3  5      1.7233E+06  1.7233E-05  
         77   1  1      8.6602E+05  8.6602E-06  
         77   1  5      1.8196E+06  1.8196E-05  
         77   2  1      7.0005E+05  7.0005E-06  
         77   2  5      1.9862E+06  1.9862E-05  
         77   3  1      5.3347E+05  5.3347E-06  
         77   3  5      2.1522E+06  2.1522E-05  
         78   1  1      4.3691E+05  4.3691E-06  
         78   1  5      2.2487E+06  2.2487E-05  
         78   2  1      2.7063E+05  2.7063E-06  
         78   2  5      2.4156E+06  2.4156E-05  
         78   3  1      1.0379E+05  1.0379E-06  
         78   3  5      2.5819E+06  2.5819E-05  
         79   1  1       6966.      6.9662E-08  
         79   1  5      2.6786E+06  2.6786E-05  
         79   2  1     -1.5979E+05 -1.5979E-06  
         79   2  5      2.8459E+06  2.8459E-05  
         79   3  1     -3.2705E+05 -3.2705E-06  
         79   3  5      3.0127E+06  3.0127E-05  
         80   1  1     -4.2421E+05 -4.2421E-06  
         80   1  5      3.1097E+06  3.1097E-05  
         80   2  1     -5.9160E+05 -5.9160E-06  
         80   2  5      3.2776E+06  3.2776E-05  
         80   3  1     -7.5943E+05 -7.5943E-06  
         80   3  5      3.4450E+06  3.4450E-05  
         81   1  1     -8.5704E+05 -8.5704E-06  
         81   1  5      3.5425E+06  3.5425E-05  
         81   2  1     -1.0252E+06 -1.0252E-05  
         81   2  5      3.7111E+06  3.7111E-05  
         81   3  1     -1.1938E+06 -1.1938E-05  
         81   3  5      3.8793E+06  3.8793E-05  
         82   1  1     -1.2919E+06 -1.2919E-05  
         82   1  5      3.9773E+06  3.9773E-05  
         82   2  1     -1.4611E+06 -1.4611E-05  
         82   2  5      4.1468E+06  4.1468E-05  
         82   3  1     -1.6305E+06 -1.6305E-05  
         82   3  5      4.3160E+06  4.3160E-05  
         83   1  1     -1.7293E+06 -1.7293E-05  
         83   1  5      4.4146E+06  4.4146E-05  
         83   2  1     -1.8996E+06 -1.8996E-05  
         83   2  5      4.5851E+06  4.5851E-05  
         83   3  1     -2.0701E+06 -2.0701E-05  
         83   3  5      4.7555E+06  4.7555E-05  
         84   1  1     -2.1696E+06 -2.1696E-05  
         84   1  5      4.8548E+06  4.8548E-05  
         84   2  1     -2.3412E+06 -2.3412E-05  
         84   2  5      5.0266E+06  5.0266E-05  
         84   3  1     -2.5130E+06 -2.5130E-05  
         84   3  5      5.1983E+06  5.1983E-05  
         85   1  1     -2.6133E+06 -2.6133E-05  
         85   1  5      5.2984E+06  5.2984E-05  
         85   2  1     -2.7864E+06 -2.7864E-05  
         85   2  5      5.4717E+06  5.4717E-05  
         85   3  1     -2.9596E+06 -2.9596E-05  
         85   3  5      5.6448E+06  5.6448E-05  
         86   1  1     -3.0608E+06 -3.0608E-05  
         86   1  5      5.7459E+06  5.7459E-05  
         86   2  1     -3.2356E+06 -3.2356E-05  
         86   2  5      5.9208E+06  5.9208E-05  
         86   3  1     -3.4104E+06 -3.4104E-05  
         86   3  5      6.0956E+06  6.0956E-05  
         87   1  1     -3.5127E+06 -3.5127E-05  
         87   1  5      6.1978E+06  6.1978E-05  
         87   2  1     -3.6893E+06 -3.6893E-05  
         87   2  5      6.3745E+06  6.3745E-05  
         87   3  1     -3.8660E+06 -3.8660E-05  
         87   3  5      6.5511E+06  6.5511E-05  
         88   1  1     -3.9694E+06 -3.9694E-05  
         88   1  5      6.6545E+06  6.6545E-05  
         88   2  1     -4.1481E+06 -4.1481E-05  
         88   2  5      6.8332E+06  6.8332E-05  
         88   3  1     -4.3268E+06 -4.3268E-05  
         88   3  5      7.0118E+06  7.0118E-05  
         89   1  1     -4.4314E+06 -4.4314E-05  
         89   1  5      7.1166E+06  7.1166E-05  
         89   2  1     -4.6124E+06 -4.6124E-05  
         89   2  5      7.2975E+06  7.2975E-05  
         89   3  1     -4.7934E+06 -4.7934E-05  
         89   3  5      7.4783E+06  7.4783E-05  
         90   1  1     -4.8993E+06 -4.8993E-05  
         90   1  5      7.5845E+06  7.5845E-05  
         90   2  1     -5.0827E+06 -5.0827E-05  
         90   2  5      7.7678E+06  7.7678E-05  
         90   3  1     -5.2662E+06 -5.2662E-05  
         90   3  5      7.9511E+06  7.9511E-05  
         91   1  1     -5.3736E+06 -5.3736E-05  
         91   1  5      8.0588E+06  8.0588E-05  
         91   2  1     -5.5596E+06 -5.5596E-05  
         91   2  5      8.2448E+06  8.2448E-05  
         91   3  1     -5.7458E+06 -5.7458E-05  
         91   3  5      8.4306E+06  8.4306E-05  
         92   1  1     -5.8548E+06 -5.8548E-05  
         92   1  5      8.5400E+06  8.5400E-05  
         92   2  1     -6.0436E+06 -6.0436E-05  
         92   2  5      8.7288E+06  8.7288E-05  
         92   3  1     -6.2327E+06 -6.2327E-05  
         92   3  5      8.9174E+06  8.9174E-05  
         93   1  1     -6.3433E+06 -6.3433E-05  
         93   1  5      9.0286E+06  9.0286E-05  
         93   2  1     -6.5352E+06 -6.5352E-05  
         93   2  5      9.2204E+06  9.2204E-05  
         93   3  1     -6.7274E+06 -6.7274E-05  
         93   3  5      9.4120E+06  9.4120E-05  
         94   1  1     -6.8398E+06 -6.8398E-05  
         94   1  5      9.5250E+06  9.5250E-05  
         94   2  1     -7.0349E+06 -7.0349E-05  
         94   2  5      9.7201E+06  9.7201E-05  
         94   3  1     -7.2303E+06 -7.2303E-05  
         94   3  5      9.9149E+06  9.9149E-05  
         95   1  1     -7.3447E+06 -7.3447E-05  
         95   1  5      1.0030E+07  1.0030E-04  
         95   2  1     -7.5432E+06 -7.5432E-05  
         95   2  5      1.0228E+07  1.0228E-04  
         95   3  1     -7.7421E+06 -7.7421E-05  
         95   3  5      1.0427E+07  1.0427E-04  
         96   1  1     -7.8585E+06 -7.8585E-05  
         96   1  5      1.0544E+07  1.0544E-04  
         96   2  1     -8.0606E+06 -8.0606E-05  
         96   2  5      1.0746E+07  1.0746E-04  
         96   3  1     -8.2630E+06 -8.2630E-05  
         96   3  5      1.0947E+07  1.0947E-04  
         97   1  1     -8.3816E+06 -8.3816E-05  
         97   1  5      1.1067E+07  1.1067E-04  
         97   2  1     -8.5876E+06 -8.5876E-05  
         97   2  5      1.1272E+07  1.1272E-04  
         97   3  1     -8.7937E+06 -8.7937E-05  
         97   3  5      1.1478E+07  1.1478E-04  
         98   1  1     -8.9145E+06 -8.9145E-05  
         98   1  5      1.1599E+07  1.1599E-04  
         98   2  1     -9.1244E+06 -9.1244E-05  
         98   2  5      1.1809E+07  1.1809E-04  
         98   3  1     -9.3345E+06 -9.3345E-05  
         98   3  5      1.2019E+07  1.2019E-04  
         99   1  1     -9.4577E+06 -9.4577E-05  
         99   1  5      1.2142E+07  1.2142E-04  
         99   2  1     -9.6717E+06 -9.6717E-05  
         99   2  5      1.2356E+07  1.2356E-04  
         99   3  1     -9.8858E+06 -9.8858E-05  
         99   3  5      1.2570E+07  1.2570E-04  
        100   1  1     -1.0011E+07 -1.0011E-04  
        100   1  5      1.2696E+07  1.2696E-04  
        100   2  1     -1.0230E+07 -1.0230E-04  
        100   2  5      1.2914E+07  1.2914E-04  
        100   3  1     -1.0448E+07 -1.0448E-04  
        100   3  5      1.3132E+07  1.3132E-04  

 MAXIMUM                1.3132E+07  1.3132E-04                                                                                    
 ELEMENT                        1          50                                                                                     

 MINIMUM               -1.0448E+07 -1.0448E-04                                                                                    
 ELEMENT                        1           1                                                                                     




                                       N O D E   O U T P U T




   THE FOLLOWING TABLE IS PRINTED FOR ALL NODES

       NODE FOOT-   U1          U2          UR3         RF1         RF2         RM3     
            NOTE

         1        0.000       0.000       0.000      -1678.       47.45       123.5     
         2       1.6705E-06 -3.6455E-05 -5.7858E-04   0.000       0.000       0.000     
         3       3.3008E-06 -1.4349E-04 -1.1293E-03   0.000       0.000       0.000     
         4       4.8559E-06 -3.1764E-04 -1.6526E-03   0.000       0.000       0.000     
         5       6.3062E-06 -5.5552E-04 -2.1491E-03   0.000       0.000       0.000     
         6       7.6271E-06 -8.5382E-04 -2.6192E-03   0.000       0.000       0.000     
         7       8.7988E-06 -1.2093E-03 -3.0635E-03   0.000       0.000       0.000     
         8       9.8056E-06 -1.6187E-03 -3.4824E-03   0.000       0.000       0.000     
         9       1.0636E-05 -2.0788E-03 -3.8763E-03   0.000       0.000       0.000     
        10       1.1282E-05 -2.5867E-03 -4.2456E-03   0.000       0.000       0.000     
        11       1.1738E-05 -3.1392E-03 -4.5907E-03   0.000       0.000       0.000     
        12       1.2004E-05 -3.7334E-03 -4.9120E-03   0.000       0.000       0.000     
        13       1.2079E-05 -4.3663E-03 -5.2097E-03   0.000       0.000       0.000     
        14       1.1969E-05 -5.0349E-03 -5.4842E-03   0.000       0.000       0.000     
        15       1.1678E-05 -5.7364E-03 -5.7358E-03   0.000       0.000       0.000     
        16       1.1216E-05 -6.4679E-03 -5.9647E-03   0.000       0.000       0.000     
        17       1.0591E-05 -7.2266E-03 -6.1712E-03   0.000       0.000       0.000     
        18       9.8161E-06 -8.0098E-03 -6.3554E-03   0.000       0.000       0.000     
        19       8.9036E-06 -8.8145E-03 -6.5175E-03   0.000       0.000       0.000     
        20       7.8682E-06 -9.6382E-03 -6.6577E-03   0.000       0.000       0.000     
        21       6.7253E-06 -1.0478E-02 -6.7761E-03   0.000       0.000       0.000     
        22       5.4915E-06 -1.1331E-02 -6.8728E-03   0.000       0.000       0.000     
        23       4.1839E-06 -1.2195E-02 -6.9479E-03   0.000       0.000       0.000     
        24       2.8205E-06 -1.3067E-02 -7.0016E-03   0.000       0.000       0.000     
        25       1.4197E-06 -1.3945E-02 -7.0337E-03   0.000       0.000       0.000     
        26      -6.4406E-17 -1.4825E-02 -7.0444E-03   0.000       0.000       0.000     
        27      -1.4197E-06 -1.5705E-02 -7.0337E-03   0.000       0.000       0.000     
        28      -2.8205E-06 -1.6583E-02 -7.0016E-03   0.000       0.000       0.000     
        29      -4.1839E-06 -1.7455E-02 -6.9479E-03   0.000       0.000       0.000     
        30      -5.4915E-06 -1.8319E-02 -6.8728E-03   0.000       0.000       0.000     
        31      -6.7253E-06 -1.9172E-02 -6.7761E-03   0.000       0.000       0.000     
        32      -7.8682E-06 -2.0012E-02 -6.6577E-03   0.000       0.000       0.000     
        33      -8.9036E-06 -2.0835E-02 -6.5175E-03   0.000       0.000       0.000     
        34      -9.8161E-06 -2.1640E-02 -6.3554E-03   0.000       0.000       0.000     
        35      -1.0591E-05 -2.2423E-02 -6.1712E-03   0.000       0.000       0.000     
        36      -1.1216E-05 -2.3182E-02 -5.9647E-03   0.000       0.000       0.000     
        37      -1.1678E-05 -2.3914E-02 -5.7358E-03   0.000       0.000       0.000     
        38      -1.1969E-05 -2.4615E-02 -5.4842E-03   0.000       0.000       0.000     
        39      -1.2079E-05 -2.5284E-02 -5.2097E-03   0.000       0.000       0.000     
        40      -1.2004E-05 -2.5917E-02 -4.9120E-03   0.000       0.000       0.000     
        41      -1.1738E-05 -2.6511E-02 -4.5907E-03   0.000       0.000       0.000     
        42      -1.1282E-05 -2.7063E-02 -4.2456E-03   0.000       0.000       0.000     
        43      -1.0636E-05 -2.7571E-02 -3.8763E-03   0.000       0.000       0.000     
        44      -9.8056E-06 -2.8031E-02 -3.4824E-03   0.000       0.000       0.000     
        45      -8.7988E-06 -2.8441E-02 -3.0635E-03   0.000       0.000       0.000     
        46      -7.6271E-06 -2.8796E-02 -2.6192E-03   0.000       0.000       0.000     
        47      -6.3062E-06 -2.9094E-02 -2.1491E-03   0.000       0.000       0.000     
        48      -4.8559E-06 -2.9332E-02 -1.6526E-03   0.000       0.000       0.000     
        49      -3.3008E-06 -2.9507E-02 -1.1293E-03   0.000       0.000       0.000     
        50      -1.6705E-06 -2.9614E-02 -5.7858E-04   0.000       0.000       0.000     
        51      -5.4036E-17 -2.9650E-02  1.0748E-14   0.000      -94.89       0.000     
        52       1.6705E-06 -2.9614E-02  5.7858E-04   0.000       0.000       0.000     
        53       3.3008E-06 -2.9507E-02  1.1293E-03   0.000       0.000       0.000     
        54       4.8559E-06 -2.9332E-02  1.6526E-03   0.000       0.000       0.000     
        55       6.3062E-06 -2.9094E-02  2.1491E-03   0.000       0.000       0.000     
        56       7.6271E-06 -2.8796E-02  2.6192E-03   0.000       0.000       0.000     
        57       8.7988E-06 -2.8441E-02  3.0635E-03   0.000       0.000       0.000     
        58       9.8056E-06 -2.8031E-02  3.4824E-03   0.000       0.000       0.000     
        59       1.0636E-05 -2.7571E-02  3.8763E-03   0.000       0.000       0.000     
        60       1.1282E-05 -2.7063E-02  4.2456E-03   0.000       0.000       0.000     
        61       1.1738E-05 -2.6511E-02  4.5907E-03   0.000       0.000       0.000     
        62       1.2004E-05 -2.5917E-02  4.9120E-03   0.000       0.000       0.000     
        63       1.2079E-05 -2.5284E-02  5.2097E-03   0.000       0.000       0.000     
        64       1.1969E-05 -2.4615E-02  5.4842E-03   0.000       0.000       0.000     
        65       1.1678E-05 -2.3914E-02  5.7358E-03   0.000       0.000       0.000     
        66       1.1216E-05 -2.3182E-02  5.9647E-03   0.000       0.000       0.000     
        67       1.0591E-05 -2.2423E-02  6.1712E-03   0.000       0.000       0.000     
        68       9.8161E-06 -2.1640E-02  6.3554E-03   0.000       0.000       0.000     
        69       8.9036E-06 -2.0835E-02  6.5175E-03   0.000       0.000       0.000     
        70       7.8682E-06 -2.0012E-02  6.6577E-03   0.000       0.000       0.000     
        71       6.7253E-06 -1.9172E-02  6.7761E-03   0.000       0.000       0.000     
        72       5.4915E-06 -1.8319E-02  6.8728E-03   0.000       0.000       0.000     
        73       4.1839E-06 -1.7455E-02  6.9479E-03   0.000       0.000       0.000     
        74       2.8205E-06 -1.6583E-02  7.0016E-03   0.000       0.000       0.000     
        75       1.4197E-06 -1.5705E-02  7.0337E-03   0.000       0.000       0.000     
        76      -5.2254E-17 -1.4825E-02  7.0444E-03   0.000       0.000       0.000     
        77      -1.4197E-06 -1.3945E-02  7.0337E-03   0.000       0.000       0.000     
        78      -2.8205E-06 -1.3067E-02  7.0016E-03   0.000       0.000       0.000     
        79      -4.1839E-06 -1.2195E-02  6.9479E-03   0.000       0.000       0.000     
        80      -5.4915E-06 -1.1331E-02  6.8728E-03   0.000       0.000       0.000     
        81      -6.7253E-06 -1.0478E-02  6.7761E-03   0.000       0.000       0.000     
        82      -7.8682E-06 -9.6382E-03  6.6577E-03   0.000       0.000       0.000     
        83      -8.9036E-06 -8.8145E-03  6.5175E-03   0.000       0.000       0.000     
        84      -9.8161E-06 -8.0098E-03  6.3554E-03   0.000       0.000       0.000     
        85      -1.0591E-05 -7.2266E-03  6.1712E-03   0.000       0.000       0.000     
        86      -1.1216E-05 -6.4679E-03  5.9647E-03   0.000       0.000       0.000     
        87      -1.1678E-05 -5.7364E-03  5.7358E-03   0.000       0.000       0.000     
        88      -1.1969E-05 -5.0349E-03  5.4842E-03   0.000       0.000       0.000     
        89      -1.2079E-05 -4.3663E-03  5.2097E-03   0.000       0.000       0.000     
        90      -1.2004E-05 -3.7334E-03  4.9120E-03   0.000       0.000       0.000     
        91      -1.1738E-05 -3.1392E-03  4.5907E-03   0.000       0.000       0.000     
        92      -1.1282E-05 -2.5867E-03  4.2456E-03   0.000       0.000       0.000     
        93      -1.0636E-05 -2.0788E-03  3.8763E-03   0.000       0.000       0.000     
        94      -9.8056E-06 -1.6187E-03  3.4824E-03   0.000       0.000       0.000     
        95      -8.7988E-06 -1.2093E-03  3.0635E-03   0.000       0.000       0.000     
        96      -7.6271E-06 -8.5382E-04  2.6192E-03   0.000       0.000       0.000     
        97      -6.3062E-06 -5.5552E-04  2.1491E-03   0.000       0.000       0.000     
        98      -4.8559E-06 -3.1764E-04  1.6526E-03   0.000       0.000       0.000     
        99      -3.3008E-06 -1.4349E-04  1.1293E-03   0.000       0.000       0.000     
       100      -1.6705E-06 -3.6455E-05  5.7858E-04   0.000       0.000       0.000     
       101        0.000       0.000       0.000       1678.       47.45      -123.5     

 MAXIMUM         1.2079E-05   0.000      7.0444E-03   1678.       47.45       123.5    
 AT NODE                13           1          76         101         101           1

 MINIMUM        -1.2079E-05 -2.9650E-02 -7.0444E-03  -1678.      -94.89      -123.5    
 AT NODE                39          51          26           1          51         101


          THE ANALYSIS HAS BEEN COMPLETED



                              ANALYSIS COMPLETE



     JOB TIME SUMMARY
       USER TIME (SEC)      =  0.10000    
       SYSTEM TIME (SEC)    =  0.10000    
       TOTAL CPU TIME (SEC) =  0.20000    
       WALLCLOCK TIME (SEC) =          0
