*Heading 
1-D Model of a Cantilever Beam: 2-noded elements  8 elements
*NODE
1,0.0,0.0
5,1.25,0.0
9,2.50,0.0
*NGEN
1,9
*ELEMENT,ELSET=ALL, TYPE=B23
1,1,2
*ELGEN, ELSET=ALL
1,8,1,1
*BEAM SECTION, SECTION=RECT, ELSET=ALL,MAT=METAL
0.025,0.05
*MATERIAL, NAME=METAL
*ELASTIC
100.E9,0.3
*BOUNDARY
1,1,2,0.0
1,6,6,0.0
9,1,2,0.0
9,6,6,0.0
*STEP
*STATIC
*CLOAD
5,2,-32.0
*NODE PRINT  
U,RF
*EL PRINT
S,E
*RESTART,WRITE
*END STEP 