1

  ABAQUS VERSION 6.4-1                                     DATE 23-Apr-2008   TIME 15:27:20        PAGE     1
 





    AAAAAA     BBBBBBBBB      AAAAAA      QQQQQQQQ    U        U    SSSSSSSS
   A      A    B        B    A      A    Q        Q   U        U   S
  A        A   B        B   A        A   Q        Q   U        U   S
  A        A   B        B   A        A   Q        Q   U        U   S
  AAAAAAAAAA   BBBBBBBBB    AAAAAAAAAA   Q        Q   U        U    SSSSSSSS
  A        A   B        B   A        A   Q    Q   Q   U        U            S
  A        A   B        B   A        A   Q     Q  Q   U        U            S
  A        A   B        B   A        A   Q      Q Q   U        U            S
  A        A   BBBBBBBBB    A        A    QQQQQQQQ     UUUUUUUU     SSSSSSSS
 



                      This program has been developed by
 
                                  ABAQUS, Inc.
                                1080 Main Street
                             Pawtucket, R.I. 02860
 


                   Available for internal use at University of Virginia. 
                   Support of your usage is not included in the license
                   price.  To purchase support, or send information to ABAQUS, Inc.
                   about a suspected error, please follow the procedures
                   described in the ABAQUS academic support instructions
                   document. A copy of this document has been sent to the
                   designated user at your site. Additional copies can be
                   obtained by contacting ABAQUS, Inc. or your local ABAQUS
                   representative.

                   Should you have any questions concerning the terms of
                   this academic license, please contact the designated
                   user at your university, Brad Sayler
 
                        On machine d107-02 
                        you are authorized to run
                        ABAQUS/Standard until 31-Dec-2008

                        Your site id is: 08UVA_X 


 
                    For assistance or any other information contact

                           ABAQUS, INC.
                           1080 Main Street
                           Pawtucket, RI 02860-4847
                           U.S.A.
                           Tel: (1) 401 727 4200
                           Fax: (1) 401 727 4208
                           E-mail: info@abaqus.com
                           Web: http://www.abaqus.com
                           Technical support: support@abaqus.com 


                * * * * * * * * * * * * * * * * * * * * * * * * * * * * * * 
                *                                                         * 
                *                   *****************                     * 
                *                   *  N O T I C E  *                     * 
                *                   *****************                     * 
                *                                                         * 
                *                                                         * 
                *                 ABAQUS VERSION 6.4-1                    * 
                *                                                         * 
                *          BUILD ID: 2003_09_29-11.18.28 46457            * 
                *                                                         * 
                *                                                         * 
                *  Please make sure you are using version 6.4 manuals     * 
                *  plus the notes accompanying this release.              * 
                *                                                         * 
                *                                                         * 
                *   This program may not be used for commercial purposes  * 
                *           without payment of a monthly charge.          * 
                *                                                         * 
                * * * * * * * * * * * * * * * * * * * * * * * * * * * * * * 


 



     PROCESSING PART, INSTANCE, AND ASSEMBLY INFORMATION
   *******************************************************


     END PROCESSING PART, INSTANCE, AND ASSEMBLY INFORMATION
   ***********************************************************




     OPTIONS BEING PROCESSED
   ***************************


  *Heading
          CRACK TIP: 8-noded elements                                                                                                                                                                                                                                     
  *NODE,NSET=N1
  *NODE,NSET=N1
  *NODE,NSET=N2
  *NODE,NSET=N3
  *NODE,NSET=N4
  *NODE,NSET=N5
  *NODE,NSET=N6
  *NODE,NSET=N7
  *NODE,NSET=N8
  *NGEN,NSET=ARC1
  *NGEN,NSET=ARC2,LINE=C
  *NGEN,NSET=ARC3,LINE=C
  *NFILL,NSET=ALL, SINGULAR=1
  *NFILL,NSET=ALL, BIAS=1.000
  *NGEN,NSET=ROW1
  *NGEN,NSET=ROW1
  *NFILL,NSET=ALL, BIAS= 1.000
  *ELEMENT, ELSET=ALL, TYPE=CPS8
  *ELGEN, ELSET=ALL
  *ELSET,ELSET=TOP,GENERATE
  *NSET, NSET=YAXIS,GENERATE
  *NSET, NSET=XAXIS,GENERATE
  *MATERIAL,NAME=ALUM
  *ELASTIC
  *SOLID SECTION, ELSET=ALL, MAT=ALUM
  *BOUNDARY
  *SOLID SECTION, ELSET=ALL, MAT=ALUM
  *STEP
  *STEP
  *STEP
  *STATIC
  *BOUNDARY
  *DLOAD
  *EL PRINT
  *END STEP
  *STEP
  *STATIC
  *BOUNDARY
  *NODE PRINT
  *END STEP

 ***WARNING: ELEMENT 1 HAS AN ASPECT RATIO EXCEEDING 100 TO 1.

 ***WARNING: ELEMENT 2 HAS AN ASPECT RATIO EXCEEDING 100 TO 1.

 ***WARNING: ELEMENT 3 HAS AN ASPECT RATIO EXCEEDING 100 TO 1.

 ***WARNING: ELEMENT 4 HAS AN ASPECT RATIO EXCEEDING 100 TO 1.

 ***WARNING: ELEMENT 5 HAS AN ASPECT RATIO EXCEEDING 100 TO 1.

 ***WARNING: ELEMENT 6 HAS AN ASPECT RATIO EXCEEDING 100 TO 1.

 ***WARNING: ELEMENT 7 HAS AN ASPECT RATIO EXCEEDING 100 TO 1.

 ***WARNING: ELEMENT 8 HAS AN ASPECT RATIO EXCEEDING 100 TO 1.

 ***WARNING: ELEMENT 9 HAS AN ASPECT RATIO EXCEEDING 100 TO 1.

 ***WARNING: ELEMENT 10 HAS AN ASPECT RATIO EXCEEDING 100 TO 1.

 ***WARNING: ELEMENT 11 HAS AN ASPECT RATIO EXCEEDING 100 TO 1.

 ***WARNING: ELEMENT 12 HAS AN ASPECT RATIO EXCEEDING 100 TO 1.

 ***WARNING: ELEMENT 13 HAS AN ASPECT RATIO EXCEEDING 100 TO 1.

 ***WARNING: ELEMENT 14 HAS AN ASPECT RATIO EXCEEDING 100 TO 1.

 ***WARNING: ELEMENT 15 HAS AN ASPECT RATIO EXCEEDING 100 TO 1.

 ***WARNING: ELEMENT 16 HAS AN ASPECT RATIO EXCEEDING 100 TO 1.

 ***WARNING: ELEMENT 17 HAS AN ASPECT RATIO EXCEEDING 100 TO 1.

 ***WARNING: ELEMENT 18 HAS AN ASPECT RATIO EXCEEDING 100 TO 1.

 ***WARNING: ELEMENT 19 HAS AN ASPECT RATIO EXCEEDING 100 TO 1.

 ***WARNING: ELEMENT 20 HAS AN ASPECT RATIO EXCEEDING 100 TO 1.

 ***WARNING: ELEMENT 21 HAS AN ASPECT RATIO EXCEEDING 100 TO 1.

 ***WARNING: ELEMENT 22 HAS AN ASPECT RATIO EXCEEDING 100 TO 1.

 ***WARNING: ELEMENT 23 HAS AN ASPECT RATIO EXCEEDING 100 TO 1.

 ***WARNING: ELEMENT 24 HAS AN ASPECT RATIO EXCEEDING 100 TO 1.

 ***WARNING: ELEMENT 25 HAS AN ASPECT RATIO EXCEEDING 100 TO 1.

 ***WARNING: ELEMENT 26 HAS AN ASPECT RATIO EXCEEDING 100 TO 1.

 ***WARNING: ELEMENT 27 HAS AN ASPECT RATIO EXCEEDING 100 TO 1.

 ***WARNING: ELEMENT 28 HAS AN ASPECT RATIO EXCEEDING 100 TO 1.

 ***WARNING: ELEMENT 29 HAS AN ASPECT RATIO EXCEEDING 100 TO 1.

 ***WARNING: ELEMENT 30 HAS AN ASPECT RATIO EXCEEDING 100 TO 1.

 ***WARNING: ELEMENT 31 HAS AN ASPECT RATIO EXCEEDING 100 TO 1.

 ***WARNING: ELEMENT 32 HAS AN ASPECT RATIO EXCEEDING 100 TO 1.

 ***WARNING: ELEMENT 33 HAS AN ASPECT RATIO EXCEEDING 100 TO 1.

 ***WARNING: ELEMENT 34 HAS AN ASPECT RATIO EXCEEDING 100 TO 1.

 ***WARNING: ELEMENT 35 HAS AN ASPECT RATIO EXCEEDING 100 TO 1.

 ***WARNING: ELEMENT 36 HAS AN ASPECT RATIO EXCEEDING 100 TO 1.

 ***WARNING: ELEMENT 37 HAS AN ASPECT RATIO EXCEEDING 100 TO 1.

 ***WARNING: ELEMENT 38 HAS AN ASPECT RATIO EXCEEDING 100 TO 1.

 ***WARNING: ELEMENT 39 HAS AN ASPECT RATIO EXCEEDING 100 TO 1.

 ***WARNING: ELEMENT 40 HAS AN ASPECT RATIO EXCEEDING 100 TO 1.

 ***WARNING: ELEMENT 41 HAS AN ASPECT RATIO EXCEEDING 100 TO 1.

 ***WARNING: ELEMENT 42 HAS AN ASPECT RATIO EXCEEDING 100 TO 1.

 ***WARNING: ELEMENT 43 HAS AN ASPECT RATIO EXCEEDING 100 TO 1.

 ***WARNING: ELEMENT 44 HAS AN ASPECT RATIO EXCEEDING 100 TO 1.

 ***WARNING: ELEMENT 45 HAS AN ASPECT RATIO EXCEEDING 100 TO 1.

 ***WARNING: ELEMENT 46 HAS AN ASPECT RATIO EXCEEDING 100 TO 1.

 ***WARNING: ELEMENT 47 HAS AN ASPECT RATIO EXCEEDING 100 TO 1.

 ***WARNING: ELEMENT 48 HAS AN ASPECT RATIO EXCEEDING 100 TO 1.

 ***WARNING: ELEMENT 49 HAS AN ASPECT RATIO EXCEEDING 100 TO 1.

 ***WARNING: ELEMENT 50 HAS AN ASPECT RATIO EXCEEDING 100 TO 1.

 ***WARNING: ELEMENT 51 HAS AN ASPECT RATIO EXCEEDING 100 TO 1.

 ***WARNING: ELEMENT 52 HAS AN ASPECT RATIO EXCEEDING 100 TO 1.

 ***WARNING: ELEMENT 53 HAS AN ASPECT RATIO EXCEEDING 100 TO 1.

 ***WARNING: ELEMENT 54 HAS AN ASPECT RATIO EXCEEDING 100 TO 1.

 ***WARNING: ELEMENT 55 HAS AN ASPECT RATIO EXCEEDING 100 TO 1.

 ***WARNING: ELEMENT 56 HAS AN ASPECT RATIO EXCEEDING 100 TO 1.

 ***WARNING: ELEMENT 57 HAS AN ASPECT RATIO EXCEEDING 100 TO 1.

 ***WARNING: ELEMENT 58 HAS AN ASPECT RATIO EXCEEDING 100 TO 1.

 ***WARNING: ELEMENT 59 HAS AN ASPECT RATIO EXCEEDING 100 TO 1.

 ***WARNING: ELEMENT 60 HAS AN ASPECT RATIO EXCEEDING 100 TO 1.

 ***WARNING: ELEMENT 61 HAS AN ASPECT RATIO EXCEEDING 100 TO 1.

 ***WARNING: ELEMENT 62 HAS AN ASPECT RATIO EXCEEDING 100 TO 1.

 ***WARNING: ELEMENT 63 HAS AN ASPECT RATIO EXCEEDING 100 TO 1.

 ***WARNING: ELEMENT 64 HAS AN ASPECT RATIO EXCEEDING 100 TO 1.

 ***WARNING: ELEMENT 65 HAS AN ASPECT RATIO EXCEEDING 100 TO 1.

 ***WARNING: ELEMENT 66 HAS AN ASPECT RATIO EXCEEDING 100 TO 1.

 ***WARNING: ELEMENT 67 HAS AN ASPECT RATIO EXCEEDING 100 TO 1.

 ***WARNING: ELEMENT 68 HAS AN ASPECT RATIO EXCEEDING 100 TO 1.

 ***WARNING: ELEMENT 69 HAS AN ASPECT RATIO EXCEEDING 100 TO 1.

 ***WARNING: ELEMENT 70 HAS AN ASPECT RATIO EXCEEDING 100 TO 1.

 ***WARNING: ELEMENT 71 HAS AN ASPECT RATIO EXCEEDING 100 TO 1.

 ***WARNING: ELEMENT 72 HAS AN ASPECT RATIO EXCEEDING 100 TO 1.

 ***WARNING: ELEMENT 73 HAS AN ASPECT RATIO EXCEEDING 100 TO 1.

 ***WARNING: ELEMENT 74 HAS AN ASPECT RATIO EXCEEDING 100 TO 1.

 ***WARNING: ELEMENT 75 HAS AN ASPECT RATIO EXCEEDING 100 TO 1.

 ***WARNING: ELEMENT 76 HAS AN ASPECT RATIO EXCEEDING 100 TO 1.

 ***WARNING: ELEMENT 77 HAS AN ASPECT RATIO EXCEEDING 100 TO 1.

 ***WARNING: ELEMENT 78 HAS AN ASPECT RATIO EXCEEDING 100 TO 1.

 ***WARNING: ELEMENT 79 HAS AN ASPECT RATIO EXCEEDING 100 TO 1.

 ***WARNING: ELEMENT 80 HAS AN ASPECT RATIO EXCEEDING 100 TO 1.

 ***WARNING: ELEMENT 860 HAS AN ASPECT RATIO EXCEEDING 100 TO 1.

 ***WARNING: ELEMENT 861 IS DISTORTED: ANGLE BETWEEN ISOPARAMETRIC LINES IS 
             LESS THAN 45 OR GREATER THAN 135 DEG.  THE MIN/MAX ANGLE IS 43.541 
             DEG.

 ***WARNING: ELEMENT 862 IS DISTORTED: ANGLE BETWEEN ISOPARAMETRIC LINES IS 
             LESS THAN 45 OR GREATER THAN 135 DEG.  THE MIN/MAX ANGLE IS 41.967 
             DEG.

 ***WARNING: ELEMENT 863 IS DISTORTED: ANGLE BETWEEN ISOPARAMETRIC LINES IS 
             LESS THAN 45 OR GREATER THAN 135 DEG.  THE MIN/MAX ANGLE IS 40.469 
             DEG.

 ***WARNING: ELEMENT 864 IS DISTORTED: ANGLE BETWEEN ISOPARAMETRIC LINES IS 
             LESS THAN 45 OR GREATER THAN 135 DEG.  THE MIN/MAX ANGLE IS 39.048 
             DEG.

 ***WARNING: ELEMENT 865 IS DISTORTED: ANGLE BETWEEN ISOPARAMETRIC LINES IS 
             LESS THAN 45 OR GREATER THAN 135 DEG.  THE MIN/MAX ANGLE IS 37.706 
             DEG.

 ***WARNING: ELEMENT 866 IS DISTORTED: ANGLE BETWEEN ISOPARAMETRIC LINES IS 
             LESS THAN 45 OR GREATER THAN 135 DEG.  THE MIN/MAX ANGLE IS 36.443 
             DEG.

 ***WARNING: ELEMENT 867 IS DISTORTED: ANGLE BETWEEN ISOPARAMETRIC LINES IS 
             LESS THAN 45 OR GREATER THAN 135 DEG.  THE MIN/MAX ANGLE IS 35.258 
             DEG.

 ***WARNING: ELEMENT 868 IS DISTORTED: ANGLE BETWEEN ISOPARAMETRIC LINES IS 
             LESS THAN 45 OR GREATER THAN 135 DEG.  THE MIN/MAX ANGLE IS 34.150 
             DEG.

 ***WARNING: ELEMENT 869 IS DISTORTED: ANGLE BETWEEN ISOPARAMETRIC LINES IS 
             LESS THAN 45 OR GREATER THAN 135 DEG.  THE MIN/MAX ANGLE IS 33.118 
             DEG.

 ***WARNING: ELEMENT 870 IS DISTORTED: ANGLE BETWEEN ISOPARAMETRIC LINES IS 
             LESS THAN 45 OR GREATER THAN 135 DEG.  THE MIN/MAX ANGLE IS 32.158 
             DEG.

 ***WARNING: ELEMENT 871 IS DISTORTED: ANGLE BETWEEN ISOPARAMETRIC LINES IS 
             LESS THAN 45 OR GREATER THAN 135 DEG.  THE MIN/MAX ANGLE IS 31.265 
             DEG.

 ***WARNING: ELEMENT 872 IS DISTORTED: ANGLE BETWEEN ISOPARAMETRIC LINES IS 
             LESS THAN 45 OR GREATER THAN 135 DEG.  THE MIN/MAX ANGLE IS 30.433 
             DEG.

 ***WARNING: ELEMENT 873 IS DISTORTED: ANGLE BETWEEN ISOPARAMETRIC LINES IS 
             LESS THAN 45 OR GREATER THAN 135 DEG.  THE MIN/MAX ANGLE IS 29.654 
             DEG.

 ***WARNING: ELEMENT 874 IS DISTORTED: ANGLE BETWEEN ISOPARAMETRIC LINES IS 
             LESS THAN 45 OR GREATER THAN 135 DEG.  THE MIN/MAX ANGLE IS 28.917 
             DEG.

 ***WARNING: ELEMENT 875 IS DISTORTED: ANGLE BETWEEN ISOPARAMETRIC LINES IS 
             LESS THAN 45 OR GREATER THAN 135 DEG.  THE MIN/MAX ANGLE IS 28.211 
             DEG.

 ***WARNING: ELEMENT 876 IS DISTORTED: ANGLE BETWEEN ISOPARAMETRIC LINES IS 
             LESS THAN 45 OR GREATER THAN 135 DEG.  THE MIN/MAX ANGLE IS 27.520 
             DEG.

 ***WARNING: ELEMENT 877 IS DISTORTED: ANGLE BETWEEN ISOPARAMETRIC LINES IS 
             LESS THAN 45 OR GREATER THAN 135 DEG.  THE MIN/MAX ANGLE IS 26.829 
             DEG.

 ***WARNING: ELEMENT 878 IS DISTORTED: ANGLE BETWEEN ISOPARAMETRIC LINES IS 
             LESS THAN 45 OR GREATER THAN 135 DEG.  THE MIN/MAX ANGLE IS 26.117 
             DEG.

 ***WARNING: ELEMENT 879 IS DISTORTED: ANGLE BETWEEN ISOPARAMETRIC LINES IS 
             LESS THAN 45 OR GREATER THAN 135 DEG.  THE MIN/MAX ANGLE IS 25.365 
             DEG.

 ***WARNING: ELEMENT 880 IS DISTORTED: ANGLE BETWEEN ISOPARAMETRIC LINES IS 
             LESS THAN 45 OR GREATER THAN 135 DEG.  THE MIN/MAX ANGLE IS 24.550 
             DEG.

 ***WARNING: 20 elements are distorted. Either the interior angles are out of 
             the suggested limits or the triangular or tetrahedral quality 
             measure is bad. The elements have been identified in element set 
             WarnElemDistorted.

 ***WARNING: The aspect ratio for 81 elements exceeds 100 to 1. The elements 
             have been identified in element set WarnElemAspectRatio.
1

   ABAQUS VERSION 6.4-1                                 DATE 23-Apr-2008       TIME 15:27:23        PAGE    2
   For use at None under academic license from ABAQUS, Inc.                                                                        

     CRACK TIP: 8-noded elements                                                     



                            P R O B L E M   S I Z E


          NUMBER OF ELEMENTS IS                                  1160
          NUMBER OF NODES IS                                     3619
          NUMBER OF NODES DEFINED BY THE USER                    3619
          TOTAL NUMBER OF VARIABLES IN THE MODEL                 7238
          (DEGREES OF FREEDOM PLUS ANY LAGRANGE MULTIPLIER VARIABLES)



                              END OF USER INPUT PROCESSING



     JOB TIME SUMMARY
       USER TIME (SEC)      =  0.60000    
       SYSTEM TIME (SEC)    =   0.0000    
       TOTAL CPU TIME (SEC) =  0.60000    
       WALLCLOCK TIME (SEC) =          3
1

   ABAQUS VERSION 6.4-1                                     DATE 23-Apr-2008   TIME 15:27:24        PAGE    1
   For use at None under academic license from ABAQUS, Inc.                                                                        

     CRACK TIP: 8-noded elements                                                               STEP    1  INCREMENT    1
                                                                                          TIME COMPLETED IN THIS STEP   0.00    


                        S T E P       1     S T A T I C   A N A L Y S I S


                                                                                          

     AUTOMATIC TIME CONTROL WITH -
          A SUGGESTED INITIAL TIME INCREMENT OF                 1.00    
          AND A TOTAL TIME PERIOD OF                            1.00    
          THE MINIMUM TIME INCREMENT ALLOWED IS                1.000E-06
          THE MAXIMUM TIME INCREMENT ALLOWED IS                 1.00    

     LINEAR EQUATION SOLVER TYPE         DIRECT SPARSE
  
  
  
                   M E M O R Y   A N D   D I S K   E S T I M A T E
  
  
           SUMMARY FOR CURRENT NODE ORDERING
          (NOTE THAT IF NODE ORDERING CHANGES THE SIZE ESTIMATES FOR THE STEPS WILL CHANGE)
  
  
           STEP   MAXIMUM DOF     FLOATING PT    MINIMUM MEMORY      MEMORY TO      REQUIRED DISKSPACE
                  WAVEFRONT       OPERATIONS       REQUIRED        MINIMIZE I/O
                                PER ITERATION     (MBYTES)           (MBYTES)          (MBYTES)
  
             1         212        5.02E+007         15.26              18.48              5.34
          ----    ---------      ------------    -------------     -------------      -------------
           MAX         212        5.02E+007         15.26              18.48              5.34
  
  
          THE TABLE ABOVE PROVIDES A STEP BY STEP SUMMARY OF SOME BASIC SIZING INFORMATION
          FOR THE PROBLEM. SOME FURTHER DESCRIPTION OF THE PARAMETERS GIVEN FOLLOWS:
  
          (1) MAXIMUM DOF WAVEFRONT - SIZE OF THE BIGGEST FRONT IN THE EQUATION SOLVER.
              PROVIDES A BASIC SIZING OF THE MOST MEMORY INTENSIVE SEGMENT OF SOLVER.
          (2) FLOATING POINT OPERATIONS PER ITERATION - MEASURE OF THE NUMBER OF FLOATING
              POINT OPERATIONS REQUIRED FOR A SINGLE SOLVER PASS. ON A GIVEN PLATFORM
              THE TIME REQUIRED FOR A SOLVER PASS WILL BE ROUGHLY A LINEAR FUNCTION
              OF THIS VALUE.
              NOTE - EXCEPT FOR THE FIRST STEP, THE VALUE IN THIS TABLE DOES NOT INCLUDE
                     ADDITIONAL FLOATING POINT OPERATIONS THAT ARE REQUIRED IN MULTIPLE LOAD
                     CASE STEPS WHEN CONSTRAINTS CHANGE FROM LOAD CASE TO LOAD CASE.  THIS
                     SITUATION CAUSES A REORDERING TO BE PERFORMED, AT WHICH TIME AN UPPER
                     BOUND ON THE NUMBER OF ADDITIONAL FLOATING POINT OPERATIONS WILL BE
                     CALCULATED AND INCLUDED UNDER THE ESTIMATE SUMMARIES FOR THE RELEVANT
                     STEPS (SEE NOTE BELOW ON REORDERING).
          (3) MINIMUM MEMORY REQUIRED - MINIMUM POSSIBLE MEMORY VALUE FOR standard_memory
              THAT ENABLES ABAQUS TO SOLVE THE PROBLEM. USE OF MEMORY WILL BE MINIMIZED BY
              WRITING AS MUCH INFORMATION AS POSSIBLE TO DISK WHICH WILL INCREASE I/O TIME.
          (4) MEMORY TO MINIMIZE I/O - VALUE OF standard_memory THAT ALLOWS ABAQUS TO KEEP
              ALL SIGNIFICANT SCRATCH FILES IN MEMORY. THIS WILL MINIMIZE I/O TIME FOR THE USER
              WITH ACCESS TO A LARGE AMOUNT OF MEMORY.
          (5) REQUIRED DISKSPACE - AMOUNT OF DISK REQUIRED FOR SCRATCH FILES. THESE WILL BE
              DELETED AT THE END OF THE ANALYSIS.
  
  
           NOTE - WHENEVER POSSIBLE THE USER SHOULD SET standard_memory TO BE LESS THAN THE
          PHYSICAL MEMORY ON THE MACHINE. UNLESS NECESSARY USERS SHOULD NOT MAKE USE
          OF VIRTUAL MEMORY EVEN IN AN ATTEMPT TO KEEP SCRATCH FILES IN MEMORY.
  
           NOTE - IF A REORDERING IS PERFORMED (THIS WILL GENERALLY BE DONE ONLY FOR 3D-3D
          LARGE SLIDING PROBLEMS), THE SIZE ESTIMATES DONE AT THIS TIME WILL NO LONGER BE VALID.
          THE ESTIMATES WILL BE REDONE IN THE EVENT OF A REORDERING AND A NEW SUMMARY WILL BE
          BE PRINTED FOR THE REMAINING STEPS.
  
  
  
           S I Z E   E S T I M A T E S   F O R   C U R R E N T   S T E P
  
          NUMBER OF EQUATIONS                        7238
          MAX DOF WAVEFRONT                          212
          FLOATING POINT OPS PER SOLVER ITERATION   5.02E+007
          MEMORY USED FOR STEP                      15.48 MBYTES
  
  
           ESTIMATED FILE SIZES
  
           FILE           KWORDS           MBYTES
  
          .fct           505.661            3.858
          .nck            18.560            0.142
          .opr           176.320            1.345
          -------        -------          -------
           TOTAL         700.541            5.345
  


                                INCREMENT     1 SUMMARY


 TIME INCREMENT COMPLETED   1.00    ,  FRACTION OF STEP COMPLETED   1.00    
 STEP TIME COMPLETED        1.00    ,  TOTAL TIME COMPLETED         1.00    



                                                  E L E M E N T   O U T P U T





   THE FOLLOWING TABLE IS PRINTED FOR ALL ELEMENTS WITH TYPE CPS8 AT THE INTEGRATION POINTS

    ELEMENT  PT FOOT-       S11         S22         S12         E11         E22         E12     
                NOTE 

          1   1         2.1718E+08  2.2776E+08  1.3593E+06  2.1264E-03  2.3230E-03  5.0487E-05  
          1   2         5.0350E+07  5.3477E+07  1.3487E+05  4.9010E-04  5.4817E-04  5.0094E-06  
          1   3         2.8660E+07  2.9736E+07  6.5236E+04  2.8199E-04  3.0197E-04  2.4230E-06  
          1   4         2.1685E+08  2.2864E+08  4.1892E+06  2.1179E-03  2.3369E-03  1.5560E-04  
          1   5         5.0303E+07  5.3624E+07  9.6816E+05  4.8879E-04  5.5047E-04  3.5960E-05  
          1   6         2.8635E+07  2.9813E+07  5.4865E+05  2.8129E-04  3.0319E-04  2.0378E-05  
          1   7         2.1636E+08  2.2826E+08  7.0176E+06  2.1126E-03  2.3336E-03  2.6065E-04  
          1   8         5.0130E+07  5.3660E+07  1.7975E+06  4.8617E-04  5.5173E-04  6.6766E-05  
          1   9         2.8533E+07  2.9844E+07  1.0296E+06  2.7971E-04  3.0406E-04  3.8243E-05  
          2   1         2.1579E+08  2.2895E+08  9.6687E+06  2.1015E-03  2.3459E-03  3.5912E-04  
          2   2         5.0018E+07  5.3677E+07  2.0621E+06  4.8451E-04  5.5244E-04  7.6592E-05  
          2   3         2.8479E+07  2.9869E+07  1.1555E+06  2.7883E-04  3.0465E-04  4.2920E-05  
          2   4         2.1463E+08  2.3031E+08  1.2376E+07  2.0792E-03  2.3703E-03  4.5969E-04  
          2   5         4.9753E+07  5.4003E+07  2.8576E+06  4.7931E-04  5.5825E-04  1.0614E-04  
          2   6         2.8329E+07  3.0053E+07  1.6169E+06  2.7590E-04  3.0792E-04  6.0055E-05  
          2   7         2.1335E+08  2.3041E+08  1.5081E+07  2.0603E-03  2.3772E-03  5.6015E-04  
          2   8         4.9365E+07  5.4218E+07  3.6415E+06  4.7285E-04  5.6298E-04  1.3526E-04  
          2   9         2.8103E+07  3.0190E+07  2.0710E+06  2.7209E-04  3.1084E-04  7.6923E-05  
          3   1         2.1223E+08  2.3176E+08  1.7533E+07  2.0386E-03  2.4013E-03  6.5121E-04  
          3   2         4.9144E+07  5.4250E+07  3.8906E+06  4.6956E-04  5.6438E-04  1.4451E-04  
          3   3         2.7997E+07  3.0237E+07  2.1835E+06  2.7037E-04  3.1197E-04  8.1101E-05  
          3   4         2.1028E+08  2.3358E+08  1.9996E+07  2.0030E-03  2.4356E-03  7.4269E-04  
          3   5         4.8672E+07  5.4744E+07  4.6080E+06  4.6069E-04  5.7347E-04  1.7115E-04  
          3   6         2.7729E+07  3.0521E+07  2.5991E+06  2.6532E-04  3.1717E-04  9.6538E-05  
          3   7         2.0824E+08  2.3413E+08  2.2460E+07  1.9714E-03  2.4522E-03  8.3423E-04  
          3   8         4.8082E+07  5.5124E+07  5.3069E+06  4.5064E-04  5.8143E-04  1.9711E-04  
          3   9         2.7388E+07  3.0755E+07  3.0031E+06  2.5945E-04  3.2198E-04  1.1154E-04  
          4   1         2.0664E+08  2.3609E+08  2.4588E+07  1.9401E-03  2.4871E-03  9.1329E-04  
          4   2         4.7754E+07  5.5168E+07  5.5305E+06  4.4577E-04  5.8346E-04  2.0542E-04  
          4   3         2.7233E+07  3.0820E+07  3.0941E+06  2.5695E-04  3.2358E-04  1.1492E-04  
          4   4         2.0394E+08  2.3831E+08  2.6691E+07  1.8920E-03  2.5304E-03  9.9138E-04  
          4   5         4.7094E+07  5.5812E+07  6.1323E+06  4.3358E-04  5.9548E-04  2.2777E-04  
          4   6         2.6857E+07  3.1192E+07  3.4421E+06  2.5000E-04  3.3050E-04  1.2785E-04  
          4   7         2.0119E+08  2.3924E+08  2.8808E+07  1.8488E-03  2.5555E-03  1.0700E-03  
          4   8         4.6325E+07  5.6337E+07  6.7100E+06  4.2034E-04  6.0628E-04  2.4923E-04  
          4   9         2.6413E+07  3.1512E+07  3.7747E+06  2.4228E-04  3.3697E-04  1.4020E-04  
          5   1         1.9918E+08  2.4174E+08  3.0503E+07  1.8094E-03  2.5998E-03  1.1330E-03  
          5   2         4.5894E+07  5.6388E+07  6.8984E+06  4.1397E-04  6.0886E-04  2.5623E-04  
          5   3         2.6215E+07  3.1589E+07  3.8373E+06  2.3912E-04  3.3892E-04  1.4253E-04  
          5   4         1.9579E+08  2.4428E+08  3.2139E+07  1.7501E-03  2.6507E-03  1.1937E-03  
          5   5         4.5073E+07  5.7155E+07  7.3519E+06  3.9895E-04  6.2332E-04  2.7307E-04  
          5   6         2.5748E+07  3.2033E+07  4.0986E+06  2.3055E-04  3.4727E-04  1.5223E-04  
          5   7         1.9243E+08  2.4553E+08  3.3815E+07  1.6967E-03  2.6829E-03  1.2560E-03  
          5   8         4.4153E+07  5.7798E+07  7.7769E+06  3.8305E-04  6.3645E-04  2.8886E-04  
          5   9         2.5218E+07  3.2423E+07  4.3414E+06  2.2131E-04  3.5511E-04  1.6125E-04  
          6   1         1.9011E+08  2.4846E+08  3.4983E+07  1.6510E-03  2.7347E-03  1.2994E-03  
          6   2         4.3624E+07  5.7850E+07  7.9212E+06  3.7528E-04  6.3946E-04  2.9422E-04  
          6   3         2.4983E+07  3.2503E+07  4.3702E+06  2.1760E-04  3.5726E-04  1.6232E-04  
          6   4         1.8612E+08  2.5124E+08  3.6059E+07  1.5821E-03  2.7915E-03  1.3393E-03  
          6   5         4.2674E+07  5.8707E+07  8.1992E+06  3.5803E-04  6.5578E-04  3.0454E-04  
          6   6         2.4444E+07  3.3001E+07  4.5291E+06  2.0776E-04  3.6669E-04  1.6822E-04  
          6   7         1.8223E+08  2.5271E+08  3.7215E+07  1.5203E-03  2.8291E-03  1.3823E-03  
          6   8         4.1636E+07  5.9435E+07  8.4463E+06  3.4009E-04  6.7063E-04  3.1372E-04  
          6   9         2.3848E+07  3.3441E+07  4.6673E+06  1.9736E-04  3.7553E-04  1.7336E-04  
          7   1         1.7973E+08  2.5597E+08  3.7787E+07  1.4705E-03  2.8864E-03  1.4035E-03  
          7   2         4.1018E+07  5.9480E+07  8.5383E+06  3.3105E-04  6.7393E-04  3.1714E-04  
          7   3         2.3582E+07  3.3515E+07  4.6590E+06  1.9325E-04  3.7772E-04  1.7305E-04  
          7   4         1.7523E+08  2.5887E+08  3.8227E+07  1.3939E-03  2.9471E-03  1.4198E-03  
          7   5         3.9976E+07  6.0391E+07  8.6205E+06  3.1226E-04  6.9140E-04  3.2019E-04  
          7   6         2.2993E+07  3.4045E+07  4.7038E+06  1.8257E-04  3.8782E-04  1.7471E-04  
          7   7         1.7092E+08  2.6045E+08  3.8802E+07  1.3255E-03  2.9881E-03  1.4412E-03  
          7   8         3.8860E+07  6.1167E+07  8.6715E+06  2.9300E-04  7.0727E-04  3.2209E-04  
          7   9         2.2354E+07  3.4514E+07  4.7269E+06  1.7143E-04  3.9726E-04  1.7557E-04  
          8   1         1.6836E+08  2.6390E+08  3.8732E+07  1.2741E-03  3.0485E-03  1.4386E-03  
          8   2         3.8158E+07  6.1196E+07  8.7040E+06  2.8285E-04  7.1070E-04  3.2329E-04  
          8   3         2.2065E+07  3.4572E+07  4.6801E+06  1.6705E-04  3.9932E-04  1.7383E-04  
          8   4         1.6347E+08  2.6681E+08  3.8478E+07  1.1919E-03  3.1109E-03  1.4292E-03  
          8   5         3.7066E+07  6.2120E+07  8.5779E+06  2.6328E-04  7.2858E-04  3.1861E-04  
          8   6         2.1451E+07  3.5111E+07  4.6037E+06  1.5597E-04  4.0965E-04  1.7100E-04  
          8   7         1.5885E+08  2.6838E+08  3.8432E+07  1.1191E-03  3.1532E-03  1.4275E-03  
          8   8         3.5913E+07  6.2904E+07  8.4227E+06  2.4346E-04  7.4471E-04  3.1284E-04  
          8   9         2.0793E+07  3.5584E+07  4.5058E+06  1.4454E-04  4.1923E-04  1.6736E-04  
          9   1         1.5637E+08  2.7191E+08  3.7700E+07  1.0686E-03  3.2142E-03  1.4003E-03  
          9   2         3.5139E+07  6.2907E+07  8.3899E+06  2.3238E-04  7.4808E-04  3.1163E-04  
          9   3         2.0488E+07  3.5615E+07  4.4211E+06  1.4005E-04  4.2098E-04  1.6421E-04  
          9   4         1.5122E+08  2.7468E+08  3.6718E+07  9.8309E-04  3.2759E-03  1.3638E-03  
          9   5         3.4038E+07  6.3802E+07  8.0512E+06  2.1282E-04  7.6558E-04  2.9904E-04  
          9   6         1.9873E+07  3.6138E+07  4.2214E+06  1.2903E-04  4.3109E-04  1.5680E-04  
          9   7         1.4641E+08  2.7613E+08  3.6033E+07  9.0818E-04  3.3172E-03  1.3384E-03  
          9   8         3.2892E+07  6.4552E+07  7.6875E+06  1.9324E-04  7.8121E-04  2.8554E-04  
          9   9         1.9223E+07  3.6592E+07  4.0015E+06  1.1779E-04  4.4036E-04  1.4863E-04  
         10   1         1.4415E+08  2.7959E+08  3.4648E+07  8.6107E-04  3.3763E-03  1.2869E-03  
         10   2         3.2056E+07  6.4518E+07  7.5854E+06  1.8143E-04  7.8430E-04  2.8174E-04  
         10   3         1.8908E+07  3.6587E+07  3.8816E+06  1.1331E-04  4.4164E-04  1.4417E-04  
         10   4         1.3886E+08  2.8209E+08  3.2924E+07  7.7475E-04  3.4347E-03  1.2229E-03  
         10   5         3.0990E+07  6.5342E+07  7.0381E+06  1.6268E-04  8.0064E-04  2.6142E-04  
         10   6         1.8318E+07  3.7070E+07  3.5614E+06  1.0282E-04  4.5106E-04  1.3228E-04  
         10   7         1.3398E+08  2.8329E+08  3.1604E+07  6.9992E-04  3.4728E-03  1.1739E-03  
         10   8         2.9893E+07  6.6018E+07  6.4726E+06  1.4412E-04  8.1499E-04  2.4041E-04  
         10   9         1.7700E+07  3.7480E+07  3.2235E+06  9.2222E-05  4.5958E-04  1.1973E-04  
         11   1         1.3208E+08  2.8656E+08  2.9602E+07  6.5877E-04  3.5276E-03  1.0995E-03  
         11   2         2.9005E+07  6.5932E+07  6.2987E+06  1.3179E-04  8.1758E-04  2.3395E-04  
         11   3         1.7380E+07  3.7430E+07  3.0726E+06  8.7867E-05  4.6023E-04  1.1412E-04  
         11   4         1.2678E+08  2.8864E+08  2.7149E+07  5.7407E-04  3.5801E-03  1.0084E-03  
         11   5         2.8017E+07  6.6645E+07  5.5554E+06  1.1462E-04  8.3200E-04  2.0634E-04  
         11   6         1.6839E+07  3.7849E+07  2.6397E+06  7.8356E-05  4.6853E-04  9.8047E-05  
         11   7         1.2195E+08  2.8948E+08  2.5220E+07  5.0151E-04  3.6127E-03  9.3676E-04  
         11   8         2.7011E+07  6.7207E+07  4.8026E+06  9.7835E-05  8.4434E-04  1.7838E-04  
         11   9         1.6278E+07  3.8193E+07  2.1927E+06  6.8853E-05  4.7585E-04  8.1442E-05  
         12   1         1.2053E+08  2.9242E+08  2.2662E+07  4.6865E-04  3.6609E-03  8.4172E-04  
         12   2         2.6083E+07  6.7059E+07  4.5568E+06  8.5220E-05  8.4620E-04  1.6925E-04  
         12   3         1.5957E+07  3.8090E+07  2.0165E+06  6.4708E-05  4.7576E-04  7.4900E-05  
         12   4         1.1535E+08  2.9396E+08  1.9518E+07  3.8799E-04  3.7051E-03  7.2495E-04  
         12   5         2.5210E+07  6.7622E+07  3.6379E+06  7.0332E-05  8.5799E-04  1.3512E-04  
         12   6         1.5488E+07  3.8423E+07  1.4834E+06  5.6592E-05  4.8252E-04  5.5097E-05  
         12   7         1.1068E+08  2.9431E+08  1.7029E+07  3.1978E-04  3.7300E-03  6.3250E-04  
         12   8         2.4332E+07  6.8035E+07  2.7202E+06  5.6017E-05  8.6765E-04  1.0104E-04  
         12   9         1.5005E+07  3.8680E+07  9.4062E+05  4.8582E-05  4.8827E-04  3.4937E-05  
         13   1         1.0986E+08  2.9683E+08  1.3999E+07  2.9729E-04  3.7697E-03  5.1996E-04  
         13   2         2.3377E+07  6.7810E+07  2.4044E+06  4.3338E-05  8.6853E-04  8.9308E-05  
         13   3         1.4685E+07  3.8519E+07  7.4598E+05  4.4703E-05  4.8734E-04  2.7708E-05  
         13   4         1.0491E+08  2.9769E+08  1.0225E+07  2.2296E-04  3.8031E-03  3.7978E-04  
         13   5         2.2654E+07  6.8193E+07  1.3376E+06  3.1370E-05  8.7709E-04  4.9682E-05  
         13   6         1.4309E+07  3.8748E+07  1.2912E+05  3.8346E-05  4.9222E-04  4.7959E-06  
         13   7         1.0050E+08  2.9744E+08  7.2451E+06  1.6096E-04  3.8185E-03  2.6910E-04  
         13   8         2.1936E+07  6.8426E+07  2.8432E+05  2.0116E-05  8.8350E-04  1.0561E-05  
         13   9         1.3922E+07  3.8900E+07 -4.9187E+05  3.2177E-05  4.9605E-04 -1.8270E-05  
         14   1         1.0038E+08  2.9946E+08  3.8492E+06  1.5056E-04  3.8478E-03  1.4297E-04  
         14   2         2.0965E+07  6.8112E+07 -9.7036E+04  7.5958E-06  8.8317E-04 -3.6042E-06  
         14   3         1.3604E+07  3.8676E+07 -6.9777E+05  2.8584E-05  4.9421E-04 -2.5917E-05  
         14   4         9.5779E+07  2.9952E+08 -4.7107E+05  8.4636E-05  3.8683E-03 -1.7497E-05  
         14   5         2.0420E+07  6.8285E+07 -1.2780E+06 -9.3269E-07  8.8799E-04 -4.7468E-05  
         14   6         1.3335E+07  3.8785E+07 -1.3781E+06  2.4283E-05  4.9693E-04 -5.1188E-05  
         14   7         9.1707E+07  2.9858E+08 -3.8536E+06  3.0448E-05  3.8725E-03 -1.4313E-04  
         14   8         1.9889E+07  6.8315E+07 -2.4317E+06 -8.6486E-06  8.9068E-04 -9.0322E-05  
         14   9         1.3062E+07  3.8819E+07 -2.0565E+06  2.0231E-05  4.9858E-04 -7.6385E-05  
         15   1         9.2351E+07  3.0003E+08 -7.4934E+06  3.3469E-05  3.8903E-03 -2.7833E-04  
         15   2         1.8914E+07  6.7900E+07 -2.8720E+06 -2.0799E-05  8.8893E-04 -1.0667E-04  
         15   3         1.2743E+07  3.8530E+07 -2.2663E+06  1.6914E-05  4.9582E-04 -8.4178E-05  
         15   4         8.8196E+07  2.9918E+08 -1.2255E+07 -2.2259E-05  3.8960E-03 -4.5518E-04  
         15   5         1.8569E+07  6.7845E+07 -4.1282E+06 -2.5498E-05  8.8964E-04 -1.5333E-04  
         15   6         1.2595E+07  3.8509E+07 -2.9872E+06  1.4886E-05  4.9615E-04 -1.1095E-04  
         15   7         8.4531E+07  2.9749E+08 -1.5936E+07 -6.7363E-05  3.8875E-03 -5.9192E-04  
         15   8         1.8243E+07  6.7654E+07 -5.3429E+06 -2.9334E-05  8.8830E-04 -1.9845E-04  
         15   9         1.2445E+07  3.8415E+07 -3.6995E+06  1.3149E-05  4.9545E-04 -1.3741E-04  
         16   1         8.5989E+07  2.9831E+08 -1.9686E+07 -5.0069E-05  3.8931E-03 -7.3119E-04  
         16   2         1.7273E+07  6.7127E+07 -5.8332E+06 -4.0926E-05  8.8493E-04 -2.1666E-04  
         16   3         1.2122E+07  3.8060E+07 -3.9063E+06  1.0063E-05  4.9176E-04 -1.4509E-04  
         16   4         8.2353E+07  2.9648E+08 -2.4765E+07 -9.4168E-05  3.8825E-03 -9.1985E-04  
         16   5         1.7141E+07  6.6833E+07 -7.1224E+06 -4.1553E-05  8.8130E-04 -2.6455E-04  
         16   6         1.2102E+07  3.7903E+07 -4.6428E+06  1.0440E-05  4.8961E-04 -1.7245E-04  
         16   7         7.9141E+07  2.9397E+08 -2.8629E+07 -1.2930E-04  3.8604E-03 -1.0634E-03  
         16   8         1.7031E+07  6.6412E+07 -8.3555E+06 -4.1319E-05  8.7575E-04 -3.1035E-04  
         16   9         1.2081E+07  3.7676E+07 -5.3639E+06  1.1123E-05  4.8645E-04 -1.9923E-04  
         17   1         8.1433E+07  2.9416E+08 -3.2348E+07 -9.7376E-05  3.8534E-03 -1.2015E-03  
         17   2         1.6076E+07  6.5766E+07 -8.8849E+06 -5.2195E-05  8.7061E-04 -3.3001E-04  
         17   3         1.1751E+07  3.7256E+07 -5.5613E+06  8.1958E-06  4.8187E-04 -2.0656E-04  
         17   4         7.8369E+07  2.9129E+08 -3.7608E+07 -1.2883E-04  3.8255E-03 -1.3969E-03  
         17   5         1.6162E+07  6.5228E+07 -1.0163E+07 -4.8665E-05  8.6257E-04 -3.7748E-04  
         17   6         1.1860E+07  3.6962E+07 -6.2876E+06  1.1015E-05  4.7720E-04 -2.3354E-04  
         17   7         7.5633E+07  2.8793E+08 -4.1528E+07 -1.5353E-04  3.7892E-03 -1.5425E-03  
         17   8         1.6270E+07  6.4577E+07 -1.1371E+07 -4.4330E-05  8.5280E-04 -4.2234E-04  
         17   9         1.1970E+07  3.6602E+07 -6.9918E+06  1.4131E-05  4.7159E-04 -2.5969E-04  
         18   1         7.8751E+07  2.8750E+08 -4.5073E+07 -1.0714E-04  3.7697E-03 -1.6741E-03  
         18   2         1.5336E+07  6.3805E+07 -1.1926E+07 -5.4371E-05  8.4578E-04 -4.4298E-04  
         18   3         1.1625E+07  3.6121E+07 -7.1748E+06  1.1268E-05  4.6619E-04 -2.6649E-04  
         18   4         7.6288E+07  2.8356E+08 -5.0366E+07 -1.2541E-04  3.7239E-03 -1.8707E-03  
         18   5         1.5636E+07  6.3030E+07 -1.3149E+07 -4.6760E-05  8.3342E-04 -4.8839E-04  
         18   6         1.1861E+07  3.5693E+07 -7.8650E+06  1.6470E-05  4.5907E-04 -2.9213E-04  
         18   7         7.4026E+07  2.7934E+08 -5.4213E+07 -1.3967E-04  3.6734E-03 -2.0136E-03  
         18   8         1.5955E+07  6.2157E+07 -1.4288E+07 -3.8456E-05  8.1958E-04 -5.3069E-04  
         18   9         1.2097E+07  3.5206E+07 -8.5267E+06  2.1937E-05  4.5110E-04 -3.1671E-04  
         19   1         7.7932E+07  2.7832E+08 -5.7444E+07 -7.9501E-05  3.6421E-03 -2.1337E-03  
         19   2         1.5046E+07  6.1256E+07 -1.4857E+07 -4.7586E-05  8.1060E-04 -5.5182E-04  
         19   3         1.1732E+07  3.4667E+07 -8.6915E+06  1.9028E-05  4.4496E-04 -3.2283E-04  
         19   4         7.6072E+07  2.7330E+08 -6.2617E+07 -8.4553E-05  3.5783E-03 -2.3258E-03  
         19   5         1.5548E+07  6.0258E+07 -1.5981E+07 -3.6133E-05  7.9419E-04 -5.9357E-04  
         19   6         1.2087E+07  3.4115E+07 -9.3209E+06  2.6461E-05  4.3556E-04 -3.4621E-04  
         19   7         7.4257E+07  2.6825E+08 -6.6261E+07 -8.8833E-05  3.5139E-03 -2.4611E-03  
         19   8         1.6063E+07  5.9180E+07 -1.7009E+07 -2.4149E-05  7.7658E-04 -6.3178E-04  
         19   9         1.2440E+07  3.3511E+07 -9.9161E+06  3.4101E-05  4.2541E-04 -3.6831E-04  
         20   1         7.8887E+07  2.6671E+08 -6.9048E+07 -1.6069E-05  3.4720E-03 -2.5646E-03  
         20   2         1.5181E+07  5.8149E+07 -1.7577E+07 -3.2343E-05  7.6565E-04 -6.5285E-04  
         20   3         1.2047E+07  3.2918E+07 -1.0060E+07  3.1027E-05  4.1863E-04 -3.7368E-04  
         20   4         7.7603E+07  2.6064E+08 -7.3947E+07 -8.3896E-06  3.3908E-03 -2.7466E-03  
         20   5         1.5864E+07  5.6950E+07 -1.8563E+07 -1.7438E-05  7.4559E-04 -6.8948E-04  
         20   6         1.2508E+07  3.2256E+07 -1.0606E+07  4.0450E-05  4.0719E-04 -3.9395E-04  
         20   7         7.6183E+07  2.5479E+08 -7.7264E+07 -3.6281E-06  3.3134E-03 -2.8698E-03  
         20   8         1.6553E+07  5.5692E+07 -1.9444E+07 -2.2125E-06  7.2465E-04 -7.2221E-04  
         20   9         1.2965E+07  3.1550E+07 -1.1113E+07  5.0001E-05  3.9515E-04 -4.1278E-04  
         21   1         8.1447E+07  2.5281E+08 -7.9488E+07  8.0070E-05  3.2625E-03 -2.9524E-03  
         21   2         1.5696E+07  5.4535E+07 -1.9995E+07 -9.4932E-06  7.1181E-04 -7.4268E-04  
         21   3         1.2537E+07  3.0908E+07 -1.1236E+07  4.6641E-05  3.8781E-04 -4.1735E-04  
         21   4         8.0686E+07  2.4574E+08 -8.3966E+07  9.9465E-05  3.1648E-03 -3.1188E-03  
         21   5         1.6533E+07  5.3165E+07 -2.0809E+07  8.3328E-06  6.8865E-04 -7.7290E-04  
         21   6         1.3087E+07  3.0154E+07 -1.1679E+07  5.7733E-05  3.7468E-04 -4.3380E-04  
         21   7         7.9585E+07  2.3918E+08 -8.6842E+07  1.1189E-04  3.0757E-03 -3.2256E-03  
         21   8         1.7363E+07  5.1757E+07 -2.1510E+07  2.6229E-05  6.6498E-04 -7.9894E-04  
         21   9         1.3629E+07  2.9364E+07 -1.2079E+07  6.8855E-05  3.6108E-04 -4.4864E-04  
         22   1         8.5367E+07  2.3686E+08 -8.8403E+07  2.0443E-04  3.0178E-03 -3.2835E-03  
         22   2         1.6530E+07  5.0482E+07 -2.2032E+07  1.9788E-05  6.5032E-04 -8.1833E-04  
         22   3         1.3160E+07  2.8678E+07 -1.2182E+07  6.5095E-05  3.5329E-04 -4.5246E-04  
         22   4         8.5049E+07  2.2889E+08 -9.2323E+07  2.3402E-04  2.9054E-03 -3.4291E-03  
         22   5         1.7485E+07  4.8976E+07 -2.2644E+07  3.9886E-05  6.2472E-04 -8.4106E-04  
         22   6         1.3779E+07  2.7853E+07 -1.2505E+07  7.7466E-05  3.3885E-04 -4.6448E-04  
         22   7         8.4169E+07  2.2169E+08 -9.4658E+07  2.5231E-04  2.8063E-03 -3.5159E-03  
         22   8         1.8421E+07  4.7457E+07 -2.3140E+07  5.9770E-05  5.9901E-04 -8.5947E-04  
         22   9         1.4384E+07  2.7003E+07 -1.2783E+07  8.9756E-05  3.2411E-04 -4.7481E-04  
         23   1         9.0336E+07  2.1916E+08 -9.5478E+07  3.5125E-04  2.7437E-03 -3.5463E-03  
         23   2         1.7605E+07  4.6071E+07 -2.3620E+07  5.4053E-05  5.8270E-04 -8.7730E-04  
         23   3         1.3868E+07  2.6278E+07 -1.2868E+07  8.5495E-05  3.1597E-04 -4.7794E-04  
         23   4         9.0354E+07  2.1040E+08 -9.8720E+07  3.8904E-04  2.6185E-03 -3.6667E-03  
         23   5         1.8639E+07  4.4471E+07 -2.4009E+07  7.5675E-05  5.5543E-04 -8.9177E-04  
         23   6         1.4531E+07  2.5406E+07 -1.3061E+07  9.8702E-05  3.0067E-04 -4.8511E-04  
         23   7         8.9580E+07  2.0269E+08 -1.0043E+08  4.1105E-04  2.5116E-03 -3.7304E-03  
         23   8         1.9639E+07  4.2882E+07 -2.4281E+07  9.6780E-05  5.2843E-04 -9.0187E-04  
         23   9         1.5175E+07  2.4520E+07 -1.3207E+07  1.1171E-04  2.8525E-04 -4.9054E-04  
         24   1         9.5980E+07  2.0008E+08 -1.0046E+08  5.1364E-04  2.4470E-03 -3.7313E-03  
         24   2         1.8834E+07  4.1398E+07 -2.4709E+07  9.1632E-05  5.1069E-04 -9.1775E-04  
         24   3         1.4608E+07  2.3759E+07 -1.3276E+07  1.0686E-04  2.7682E-04 -4.9311E-04  
         24   4         9.6209E+07  1.9068E+08 -1.0292E+08  5.5724E-04  2.3116E-03 -3.8229E-03  
         24   5         1.9902E+07  3.9749E+07 -2.4863E+07  1.1397E-04  4.8255E-04 -9.2347E-04  
         24   6         1.5290E+07  2.2867E+07 -1.3332E+07  1.2042E-04  2.6115E-04 -4.9517E-04  
         24   7         9.5411E+07  1.8257E+08 -1.0396E+08  5.8055E-04  2.1993E-03 -3.8615E-03  
         24   8         2.0923E+07  3.8134E+07 -2.4902E+07  1.3547E-04  4.5510E-04 -9.2492E-04  
         24   9         1.5947E+07  2.1971E+07 -1.3341E+07  1.3366E-04  2.4552E-04 -4.9551E-04  
         25   1         1.0188E+08  1.8004E+08 -1.0317E+08  6.8383E-04  2.1353E-03 -3.8320E-03  
         25   2         2.0120E+07  3.6568E+07 -2.5268E+07  1.3071E-04  4.3617E-04 -9.3854E-04  
         25   3         1.5325E+07  2.1179E+07 -1.3399E+07  1.2816E-04  2.3687E-04 -4.9767E-04  
         25   4         1.0218E+08  1.7014E+08 -1.0479E+08  7.3051E-04  1.9926E-03 -3.8920E-03  
         25   5         2.1178E+07  3.4915E+07 -2.5183E+07  1.5290E-04  4.0802E-04 -9.3536E-04  
         25   6         1.5998E+07  2.0293E+07 -1.3316E+07  1.4158E-04  2.2133E-04 -4.9458E-04  
         25   7         1.0121E+08  1.6179E+08 -1.0512E+08  7.5252E-04  1.8776E-03 -3.9045E-03  
         25   8         2.2172E+07  3.3320E+07 -2.4988E+07  1.7395E-04  3.8097E-04 -9.2813E-04  
         25   9         1.6642E+07  1.9412E+07 -1.3188E+07  1.5455E-04  2.0599E-04 -4.8983E-04  
         26   1         1.0758E+08  1.5947E+08 -1.0351E+08  8.5341E-04  1.8171E-03 -3.8446E-03  
         26   2         2.1363E+07  3.1687E+07 -2.5288E+07  1.6939E-04  3.6111E-04 -9.3927E-04  
         26   3         1.5962E+07  1.8591E+07 -1.3239E+07  1.4835E-04  1.9718E-04 -4.9174E-04  
         26   4         1.0779E+08  1.4926E+08 -1.0424E+08  9.0023E-04  1.6703E-03 -3.8717E-03  
         26   5         2.2364E+07  3.0077E+07 -2.4968E+07  1.9059E-04  3.3382E-04 -9.2737E-04  
         26   6         1.6601E+07  1.7738E+07 -1.3021E+07  1.6114E-04  1.8225E-04 -4.8364E-04  
         26   7         1.0653E+08  1.4082E+08 -1.0387E+08  9.1826E-04  1.5552E-03 -3.8580E-03  
         26   8         2.3287E+07  2.8546E+07 -2.4548E+07  2.1033E-04  3.0799E-04 -9.1178E-04  
         26   9         1.7204E+07  1.6900E+07 -1.2762E+07  1.7334E-04  1.6769E-04 -4.7400E-04  
         27   1         1.1261E+08  1.3886E+08 -1.0148E+08  1.0137E-03  1.5010E-03 -3.7692E-03  
         27   2         2.2464E+07  2.6863E+07 -2.4778E+07  2.0578E-04  2.8749E-04 -9.2033E-04  
         27   3         1.6465E+07  1.6052E+07 -1.2811E+07  1.6642E-04  1.5875E-04 -4.7584E-04  
         27   4         1.1258E+08  1.2851E+08 -1.0131E+08  1.0576E-03  1.3534E-03 -3.7629E-03  
         27   5         2.3363E+07  2.5340E+07 -2.4237E+07  2.2516E-04  2.6187E-04 -9.0022E-04  
         27   6         1.7044E+07  1.5256E+07 -1.2467E+07  1.7810E-04  1.4490E-04 -4.6307E-04  
         27   7         1.1087E+08  1.2014E+08 -1.0027E+08  1.0690E-03  1.2412E-03 -3.7244E-03  
         27   8         2.4171E+07  2.3915E+07 -2.3609E+07  2.4281E-04  2.3806E-04 -8.7691E-04  
         27   9         1.7581E+07  1.4484E+07 -1.2087E+07  1.8908E-04  1.3157E-04 -4.4893E-04  
         28   1         1.1651E+08  1.1867E+08 -9.7169E+07  1.1559E-03  1.1959E-03 -3.6091E-03  
         28   2         2.3327E+07  2.2202E+07 -2.3768E+07  2.3809E-04  2.1720E-04 -8.8282E-04  
         28   3         1.6783E+07  1.3612E+07 -1.2139E+07  1.8142E-04  1.2252E-04 -4.5089E-04  
         28   4         1.1609E+08  1.0838E+08 -9.6127E+07  1.1939E-03  1.0508E-03 -3.5704E-03  
         28   5         2.4083E+07  2.0806E+07 -2.3029E+07  2.5487E-04  1.9401E-04 -8.5534E-04  
         28   6         1.7276E+07  1.2896E+07 -1.1683E+07  1.9154E-04  1.1018E-04 -4.3394E-04  
         28   7         1.1381E+08  1.0022E+08 -9.4483E+07  1.1963E-03  9.4404E-04 -3.5094E-03  
         28   8         2.4735E+07  1.9524E+07 -2.2218E+07  2.6968E-04  1.7291E-04 -8.2526E-04  
         28   9         1.7724E+07  1.2211E+07 -1.1196E+07  2.0087E-04  9.8489E-05 -4.1587E-04  
         29   1         1.1883E+08  9.9360E+07 -9.0772E+07  1.2718E-03  9.1013E-04 -3.3715E-03  
         29   2         2.3866E+07  1.7799E+07 -2.2308E+07  2.6466E-04  1.5199E-04 -8.2857E-04  
         29   3         1.6868E+07  1.1315E+07 -1.1257E+07  1.9247E-04  8.9356E-05 -4.1812E-04  
         29   4         1.1787E+08  8.9316E+07 -8.8919E+07  1.3010E-03  7.7079E-04 -3.3027E-03  
         29   5         2.4441E+07  1.6564E+07 -2.1399E+07  2.7817E-04  1.3188E-04 -7.9483E-04  
         29   6         1.7255E+07  1.0698E+07 -1.0707E+07  2.0065E-04  7.8881E-05 -3.9769E-04  
         29   7         1.1491E+08  8.1510E+07 -8.6760E+07  1.2923E-03  6.7195E-04 -3.2225E-03  
         29   8         2.4903E+07  1.5457E+07 -2.0439E+07  2.8951E-04  1.1409E-04 -7.5917E-04  
         29   9         1.7593E+07  1.0119E+07 -1.0134E+07  2.0795E-04  6.9163E-05 -3.7639E-04  
         30   1         1.1918E+08  8.1349E+07 -8.2574E+07  1.3540E-03  6.5135E-04 -3.0670E-03  
         30   2         2.4006E+07  1.3738E+07 -2.0460E+07  2.8407E-04  9.3368E-05 -7.5995E-04  
         30   3         1.6678E+07  9.2009E+06 -1.0208E+07  1.9882E-04  5.9966E-05 -3.7914E-04  
         30   4         1.1755E+08  7.1724E+07 -8.0005E+07  1.3719E-03  5.2084E-04 -2.9716E-03  
         30   5         2.4369E+07  1.2691E+07 -1.9420E+07  2.9373E-04  7.6863E-05 -7.2130E-04  
         30   6         1.6940E+07  8.6972E+06 -9.5852E+06  2.0473E-04  5.1645E-05 -3.5602E-04  
         30   7         1.1384E+08  6.4392E+07 -7.7448E+07  1.3504E-03  4.3199E-04 -2.8766E-03  
         30   8         2.4612E+07  1.1783E+07 -1.8348E+07  3.0110E-04  6.2845E-05 -6.8151E-04  
         30   9         1.7152E+07  8.2368E+06 -8.9473E+06  2.0972E-04  4.4162E-05 -3.3233E-04  
         31   1         1.1723E+08  6.4998E+07 -7.2950E+07  1.3961E-03  4.2614E-04 -2.7096E-03  
         31   2         2.3689E+07  1.0087E+07 -1.8303E+07  2.9518E-04  4.2584E-05 -6.7983E-04  
         31   3         1.6178E+07  7.2987E+06 -9.0408E+06  1.9984E-04  3.4932E-05 -3.3580E-04  
         31   4         1.1483E+08  5.5950E+07 -6.9789E+07  1.4007E-03  3.0714E-04 -2.5922E-03  
         31   5         2.3814E+07  9.2485E+06 -1.7172E+07  3.0056E-04  3.0062E-05 -6.3782E-04  
         31   6         1.6302E+07  6.9178E+06 -8.3704E+06  2.0324E-04  2.8961E-05 -3.1090E-04  
         31   7         1.1033E+08  4.9193E+07 -6.6974E+07  1.3653E-03  2.2993E-04 -2.4876E-03  
         31   8         2.3817E+07  8.5533E+06 -1.6032E+07  3.0358E-04  2.0118E-05 -5.9548E-04  
         31   9         1.6373E+07  6.5834E+06 -7.6932E+06  2.0569E-04  2.3877E-05 -2.8575E-04  
         32   1         1.1273E+08  5.0587E+07 -6.2355E+07  1.3936E-03  2.3956E-04 -2.3161E-03  
         32   2         2.2871E+07  6.9013E+06 -1.5922E+07  2.9716E-04  5.6956E-07 -5.9138E-04  
         32   3         1.5340E+07  5.6285E+06 -7.8136E+06  1.9503E-04  1.4663E-05 -2.9022E-04  
         32   4         1.0952E+08  4.2255E+07 -5.8754E+07  1.3835E-03  1.3428E-04 -2.1823E-03  
         32   5         2.2742E+07  6.2792E+06 -1.4745E+07  2.9798E-04 -7.7633E-06 -5.4766E-04  
         32   6         1.5315E+07  5.3741E+06 -7.1213E+06  1.9575E-04  1.1136E-05 -2.6451E-04  
         32   7         1.0421E+08  3.6150E+07 -5.5835E+07  1.3338E-03  6.9818E-05 -2.0739E-03  
         32   8         2.2490E+07  5.8018E+06 -1.3582E+07  2.9642E-04 -1.3502E-05 -5.0448E-04  
         32   9         1.5238E+07  5.1676E+06 -6.4312E+06  1.9554E-04  8.5171E-06 -2.3887E-04  
         33   1         1.0556E+08  3.8303E+07 -5.1307E+07  1.3439E-03  9.4775E-05 -1.9057E-03  
         33   2         2.1530E+07  4.2142E+06 -1.3405E+07  2.8950E-04 -3.2067E-05 -4.9789E-04  
         33   3         1.4143E+07  4.2001E+06 -6.5892E+06  1.8404E-04 -6.0954E-07 -2.4474E-04  
         33   4         1.0152E+08  3.0798E+07 -4.7436E+07  1.3183E-03  4.8737E-06 -1.7619E-03  
         33   5         2.1136E+07  3.8077E+06 -1.2228E+07  2.8562E-04 -3.6185E-05 -4.5418E-04  
         33   6         1.3962E+07  4.0694E+06 -5.9017E+06  1.8201E-04 -1.7025E-06 -2.1921E-04  
         33   7         9.5457E+07  2.5395E+07 -4.4575E+07  1.2548E-03 -4.6316E-05 -1.6556E-03  
         33   8         2.0622E+07  3.5425E+06 -1.1089E+07  2.7941E-04 -3.7772E-05 -4.1187E-04  
         33   9         1.3732E+07  3.9865E+06 -5.2255E+06  1.7908E-04 -1.9000E-06 -1.9409E-04  
         34   1         9.5746E+07  2.8216E+07 -4.0364E+07  1.2469E-03 -7.2533E-06 -1.4992E-03  
         34   2         1.9656E+07  2.0447E+06 -1.0839E+07  2.7204E-04 -5.5030E-05 -4.0258E-04  
         34   3         1.2568E+07  3.0112E+06 -5.4372E+06  1.6664E-04 -1.0847E-05 -2.0195E-04  
         34   4         9.0913E+07  2.1621E+07 -3.6406E+07  1.2061E-03 -8.0761E-05 -1.3522E-03  
         34   5         1.8994E+07  1.8417E+06 -9.7079E+06  2.6345E-04 -5.5093E-05 -3.6058E-04  
         34   6         1.2229E+07  2.9951E+06 -4.7806E+06  1.6187E-04 -9.6246E-06 -1.7757E-04  
         34   7         8.4194E+07  1.6946E+07 -3.3762E+07  1.1301E-03 -1.1875E-04 -1.2540E-03  
         34   8         1.8219E+07  1.7720E+06 -8.6371E+06  2.5268E-04 -5.2767E-05 -3.2081E-04  
         34   9         1.1844E+07  3.0248E+06 -4.1440E+06  1.5624E-04 -7.5501E-06 -1.5392E-04  
         35   1         8.3447E+07  2.0268E+07 -3.0103E+07  1.1052E-03 -6.8086E-05 -1.1181E-03  
         35   2         1.7258E+07  3.9700E+05 -8.3036E+06  2.4484E-04 -6.8291E-05 -3.0842E-04  
         35   3         1.0606E+07  2.0466E+06 -4.4353E+06  1.4274E-04 -1.6217E-05 -1.6474E-04  
         35   4         7.7923E+07  1.4637E+07 -2.6246E+07  1.0505E-03 -1.2486E-04 -9.7486E-04  
         35   5         1.6330E+07  3.7426E+05 -7.2608E+06  2.3169E-04 -6.4641E-05 -2.6969E-04  
         35   6         1.0109E+07  2.1294E+06 -3.8336E+06  1.3528E-04 -1.2903E-05 -1.4239E-04  
         35   7         7.0712E+07  1.0691E+07 -2.3970E+07  9.6435E-04 -1.5033E-04 -8.9030E-04  
         35   8         1.5300E+07  4.7267E+05 -6.2996E+06  2.1654E-04 -5.8817E-05 -2.3399E-04  
         35   9         9.5697E+06  2.2543E+06 -3.2602E+06  1.2705E-04 -8.8090E-06 -1.2109E-04  
         36   1         6.9013E+07  1.4260E+07 -2.1090E+07  9.2478E-04 -9.2049E-05 -7.8333E-04  
         36   2         1.4353E+07 -7.3431E+05 -5.8650E+06  2.0818E-04 -7.2001E-05 -2.1784E-04  
         36   3         8.2456E+06  1.2743E+06 -3.6728E+06  1.1233E-04 -1.7133E-05 -1.3642E-04  
         36   4         6.2973E+07  9.6193E+06 -1.7518E+07  8.5838E-04 -1.3246E-04 -6.5066E-04  
         36   5         1.3165E+07 -6.1029E+05 -4.9471E+06  1.9068E-04 -6.5139E-05 -1.8375E-04  
         36   6         7.5904E+06  1.4342E+06 -3.1467E+06  1.0229E-04 -1.2042E-05 -1.1688E-04  
         36   7         5.5504E+07  6.3871E+06 -1.5736E+07  7.6553E-04 -1.4663E-04 -5.8447E-04  
         36   8         1.1887E+07 -3.8127E+05 -4.1309E+06  1.7144E-04 -5.6389E-05 -1.5343E-04  
         36   9         6.8993E+06  1.6308E+06 -2.6567E+06  9.1573E-05 -6.2713E-06 -9.8677E-05  
         37   1         5.2998E+07  9.8463E+06 -1.3844E+07  7.1492E-04 -8.6473E-05 -5.1420E-04  
         37   2         1.0960E+07 -1.3558E+06 -3.5684E+06  1.6238E-04 -6.6341E-05 -1.3254E-04  
         37   3         5.4773E+06  6.3948E+05 -3.2590E+06  7.5506E-05 -1.4339E-05 -1.2105E-04  
         37   4         4.6703E+07  6.1943E+06 -1.0729E+07  6.4064E-04 -1.1167E-04 -3.9850E-04  
         37   5         9.5168E+06 -1.1273E+06 -2.8043E+06  1.4079E-04 -5.6890E-05 -1.0416E-04  
         37   6         4.6627E+06  8.4925E+05 -2.8247E+06  6.2971E-05 -7.8509E-06 -1.0492E-04  
         37   7         3.9290E+07  3.6492E+06 -9.5366E+06  5.4565E-04 -1.1626E-04 -3.5422E-04  
         37   8         7.9981E+06 -8.1357E+05 -2.1603E+06  1.1774E-04 -4.5900E-05 -8.0240E-05  
         37   9         3.8188E+06  1.0891E+06 -2.4333E+06  4.9886E-05 -8.0773E-07 -9.0380E-05  
         38   1         3.6189E+07  6.5197E+06 -8.8103E+06  4.8905E-04 -6.1958E-05 -3.2724E-04  
         38   2         7.0930E+06 -1.4608E+06 -1.4290E+06  1.0759E-04 -5.1267E-05 -5.3078E-05  
         38   3         2.2866E+06  4.8459E+04 -3.3400E+06  3.2458E-05 -9.1075E-06 -1.2406E-04  
         38   4         3.0015E+07  3.8284E+06 -6.2999E+06  4.1238E-04 -7.3946E-05 -2.3400E-04  
         38   5         5.3903E+06 -1.1755E+06 -8.3792E+05  8.2043E-05 -3.9894E-05 -3.1123E-05  
         38   6         1.3044E+06  2.7792E+05 -3.0078E+06  1.7443E-05 -1.6201E-06 -1.1172E-04  
         38   7         2.3078E+07  1.9424E+06 -5.7444E+06  3.2136E-04 -7.1157E-05 -2.1337E-04  
         38   8         3.6293E+06 -8.2837E+05 -3.8380E+05  5.5397E-05 -2.7388E-05 -1.4256E-05  
         38   9         2.9951E+05  5.2919E+05 -2.7249E+06  2.0107E-06  6.2762E-06 -1.0121E-04  
         39   1         1.9665E+07  3.5917E+06 -6.3373E+06  2.6554E-04 -3.2968E-05 -2.3539E-04  
         39   2         2.7367E+06 -1.0005E+06  5.8559E+05  4.3383E-05 -2.6021E-05  2.1751E-05  
         39   3        -1.3505E+06 -6.6883E+05 -4.1336E+06 -1.6427E-05 -3.7667E-06 -1.5353E-04  
         39   4         1.4154E+07  1.7996E+06 -4.5327E+06  1.9449E-04 -3.4951E-05 -1.6836E-04  
         39   5         7.5072E+05 -7.0580E+05  9.9381E+05  1.3749E-05 -1.3300E-05  3.6913E-05  
         39   6        -2.5243E+06 -4.4958E+05 -3.9091E+06 -3.4134E-05  4.3957E-06 -1.4520E-04  
         39   7         8.2637E+06  5.5553E+05 -4.5810E+06  1.1567E-04 -2.7480E-05 -1.7015E-04  
         39   8        -1.2755E+06 -3.7639E+05  1.2490E+06 -1.6608E-05  8.9428E-08  4.6392E-05  
         39   9        -3.7142E+06 -2.1839E+05 -3.7401E+06 -5.2124E-05  1.2798E-05 -1.3892E-04  
         40   1         4.9082E+06  6.4584E+04 -6.7169E+06  6.9841E-05 -2.0113E-05 -2.4949E-04  
         40   2        -2.1782E+06  1.9838E+05  2.6067E+06 -3.1967E-05  1.2169E-05  9.6821E-05  
         40   3        -5.4857E+06 -1.8797E+06 -6.0304E+06 -7.0310E-05 -3.3436E-06 -2.2399E-04  
         40   4         8.9851E+05 -9.1818E+05 -5.6106E+06  1.6771E-05 -1.6968E-05 -2.0839E-04  
         40   5        -4.5186E+06  4.6244E+05  2.8233E+06 -6.6534E-05  2.5972E-05  1.0487E-04  
         40   6        -6.9093E+06 -1.6962E+06 -5.9210E+06 -9.1435E-05  5.3807E-06 -2.1992E-04  
         40   7        -3.1042E+06 -1.4918E+06 -6.0652E+06 -3.7953E-05 -8.0069E-06 -2.2528E-04  
         40   8        -6.8799E+06  7.2915E+05  2.8695E+06 -1.0141E-04  3.9902E-05  1.0658E-04  
         40   9        -8.3428E+06 -1.5127E+06 -5.8739E+06 -1.1270E-04  1.4145E-05 -2.1817E-04  
         41   1          5882.       7927.       29.95      5.0063E-08  8.8027E-08  1.1125E-09  
         41   2          3593.       4361.       22.57      3.2634E-08  4.6897E-08  8.3816E-10  
         41   3          2038.       3246.       11.26      1.5203E-08  3.7643E-08  4.1838E-10  
         41   4          5876.       7943.       128.2      4.9897E-08  8.8294E-08  4.7627E-09  
         41   5          3589.       4369.       85.78      3.2546E-08  4.7029E-08  3.1861E-09  
         41   6          2035.       3253.       54.26      1.5131E-08  3.7748E-08  2.0154E-09  
         41   7          5850.       7948.       225.9      4.9506E-08  8.8470E-08  8.3894E-09  
         41   8          3577.       4372.       148.7      3.2357E-08  4.7131E-08  5.5242E-09  
         41   9          2026.       3255.       97.06      1.4985E-08  3.7822E-08  3.6052E-09  
         42   1          5831.       7961.       284.0      4.9177E-08  8.8744E-08  1.0547E-08  
         42   2          3566.       4381.       193.0      3.2172E-08  4.7299E-08  7.1674E-09  
         42   3          2018.       3260.       119.0      1.4866E-08  3.7914E-08  4.4203E-09  
         42   4          5792.       7999.       377.0      4.8462E-08  8.9445E-08  1.4002E-08  
         42   5          3547.       4400.       253.8      3.1811E-08  4.7662E-08  9.4282E-09  
         42   6          2003.       3274.       160.0      1.4578E-08  3.8195E-08  5.9443E-09  
         42   7          5734.       8024.       468.1      4.7529E-08  9.0050E-08  1.7388E-08  
         42   8          3519.       4415.       313.9      3.1349E-08  4.7993E-08  1.1660E-08  
         42   9          1981.       3285.       200.5      1.4219E-08  3.8444E-08  7.4469E-09  
         43   1          5697.       8050.       520.9      4.6884E-08  9.0584E-08  1.9346E-08  
         43   2          3499.       4432.       355.5      3.0986E-08  4.8323E-08  1.3205E-08  
         43   3          1967.       3294.       220.7      1.3985E-08  3.8624E-08  8.1980E-09  
         43   4          5628.       8106.       603.0      4.5652E-08  9.1688E-08  2.2396E-08  
         43   5          3464.       4463.       411.5      3.0363E-08  4.8904E-08  1.5285E-08  
         43   6          1939.       3317.       257.7      1.3492E-08  3.9070E-08  9.5713E-09  
         43   7          5540.       8150.       682.1      4.4215E-08  9.2685E-08  2.5335E-08  
         43   8          3421.       4488.       466.2      2.9644E-08  4.9448E-08  1.7318E-08  
         43   9          1906.       3335.       293.7      1.2931E-08  3.9480E-08  1.0910E-08  
         44   1          5486.       8187.       726.1      4.3283E-08  9.3451E-08  2.6971E-08  
         44   2          3392.       4513.       503.5      2.9114E-08  4.9929E-08  1.8702E-08  
         44   3          1886.       3348.       311.2      1.2591E-08  3.9741E-08  1.1557E-08  
         44   4          5389.       8260.       792.2      4.1588E-08  9.4905E-08  2.9424E-08  
         44   5          3343.       4552.       552.3      2.8250E-08  5.0707E-08  2.0513E-08  
         44   6          1847.       3377.       342.1      1.1911E-08  4.0334E-08  1.2707E-08  
         44   7          5275.       8319.       854.2      3.9704E-08  9.6239E-08  3.1729E-08  
         44   8          3287.       4587.       599.4      2.7297E-08  5.1442E-08  2.2262E-08  
         44   9          1803.       3403.       371.8      1.1169E-08  4.0888E-08  1.3811E-08  
         45   1          5207.       8366.       886.7      3.8526E-08  9.7197E-08  3.2934E-08  
         45   2          3249.       4619.       630.7      2.6618E-08  5.2057E-08  2.3428E-08  
         45   3          1777.       3418.       385.5      1.0734E-08  4.1216E-08  1.4318E-08  
         45   4          5086.       8451.       932.2      3.6440E-08  9.8930E-08  3.4624E-08  
         45   5          3188.       4666.       670.2      2.5542E-08  5.3001E-08  2.4893E-08  
         45   6          1729.       3454.       408.7      9.8923E-09  4.1932E-08  1.5181E-08  
         45   7          4950.       8522.       972.9      3.4186E-08  1.0052E-07  3.6137E-08  
         45   8          3119.       4709.       707.6      2.4384E-08  5.3897E-08  2.6282E-08  
         45   9          1675.       3485.       430.4      8.9951E-09  4.2604E-08  1.5988E-08  
         46   1          4869.       8575.       991.4      3.2814E-08  1.0162E-07  3.6824E-08  
         46   2          3074.       4746.       731.8      2.3578E-08  5.4624E-08  2.7180E-08  
         46   3          1644.       3502.       439.5      8.4805E-09  4.2985E-08  1.6323E-08  
         46   4          4730.       8668.       1013.      3.0425E-08  1.0355E-07  3.7618E-08  
         46   5          3003.       4800.       760.1      2.2325E-08  5.5699E-08  2.8232E-08  
         46   6          1588.       3542.       453.5      7.5079E-09  4.3793E-08  1.6844E-08  
         46   7          4576.       8745.       1029.      2.7894E-08  1.0532E-07  3.8217E-08  
         46   8          2924.       4847.       786.1      2.0999E-08  5.6717E-08  2.9200E-08  
         46   9          1527.       3577.       465.9      6.4873E-09  4.4552E-08  1.7303E-08  
         47   1          4488.       8801.       1032.      2.6388E-08  1.0650E-07  3.8320E-08  
         47   2          2873.       4889.       802.0      2.0093E-08  5.7530E-08  2.9787E-08  
         47   3          1492.       3595.       469.6      5.9113E-09  4.4967E-08  1.7443E-08  
         47   4          4335.       8897.       1026.      2.3797E-08  1.0852E-07  3.8124E-08  
         47   5          2793.       4947.       817.8      1.8703E-08  5.8695E-08  3.0376E-08  
         47   6          1430.       3637.       473.3      4.8433E-09  4.5833E-08  1.7581E-08  
         47   7          4169.       8976.       1016.      2.1092E-08  1.1036E-07  3.7726E-08  
         47   8          2707.       4998.       831.2      1.7251E-08  5.9793E-08  3.0874E-08  
         47   9          1364.       3674.       475.3      3.7359E-09  4.6643E-08  1.7652E-08  
         48   1          4076.       9032.       1002.      1.9517E-08  1.1156E-07  3.7208E-08  
         48   2          2652.       5042.       837.8      1.6276E-08  6.0662E-08  3.1120E-08  
         48   3          1326.       3693.       473.3      3.1188E-09  4.7072E-08  1.7579E-08  
         48   4          3916.       9124.       968.5      1.6832E-08  1.1357E-07  3.5972E-08  
         48   5          2566.       5101.       840.3      1.4793E-08  6.1870E-08  3.1210E-08  
         48   6          1260.       3735.       465.9      1.9946E-09  4.7958E-08  1.7306E-08  
         48   7          3744.       9199.       929.9      1.4062E-08  1.1537E-07  3.4539E-08  
         48   8          2474.       5152.       840.2      1.3260E-08  6.3002E-08  3.1208E-08  
         48   9          1190.       3772.       456.8      8.4017E-10  4.8780E-08  1.6966E-08  
         49   1          3650.       9252.       898.9      1.2487E-08  1.1652E-07  3.3388E-08  
         49   2          2417.       5198.       837.1      1.2250E-08  6.3896E-08  3.1091E-08  
         49   3          1151.       3789.       448.8      2.0346E-10  4.9202E-08  1.6671E-08  
         49   4          3488.       9335.       837.5      9.8194E-09  1.1841E-07  3.1109E-08  
         49   5          2327.       5255.       825.6      1.0721E-08  6.5098E-08  3.0666E-08  
         49   6          1083.       3830.       430.1     -9.3515E-10  5.0067E-08  1.5975E-08  
         49   7          3317.       9400.       771.3      7.0972E-09  1.2007E-07  2.8647E-08  
         49   8          2232.       5305.       811.7      9.1534E-09  6.6216E-08  3.0150E-08  
         49   9          1013.       3864.       409.6     -2.0948E-09  5.0860E-08  1.5215E-08  
         50   1          3225.       9445.       723.8      5.5887E-09  1.2111E-07  2.6883E-08  
         50   2          2175.       5349.       798.6      8.1422E-09  6.7101E-08  2.9663E-08  
         50   3          972.8       3880.       395.7     -2.7290E-09  5.1253E-08  1.4697E-08  
         50   4          3068.       9515.       635.4      3.0493E-09  1.2278E-07  2.3601E-08  
         50   5          2084.       5403.       773.3      6.6157E-09  6.8249E-08  2.8724E-08  
         50   6          905.9       3916.       365.6     -3.8396E-09  5.2054E-08  1.3581E-08  
         50   7          2903.       9564.       542.9      4.8282E-10  1.2419E-07  2.0164E-08  
         50   8          1989.       5448.       745.7      5.0610E-09  6.9304E-08  2.7699E-08  
         50   9          836.3       3945.       334.1     -4.9620E-09  5.2778E-08  1.2408E-08  
         51   1          2817.       9599.       480.1     -8.9402E-10  1.2505E-07  1.7831E-08  
         51   2          1933.       5490.       722.8      4.0844E-09  7.0145E-08  2.6846E-08  
         51   3          797.3       3958.       314.4     -5.5719E-09  5.3120E-08  1.1676E-08  
         51   4          2670.       9648.       367.0     -3.2018E-09  1.2639E-07  1.3631E-08  
         51   5          1843.       5536.       684.1      2.6062E-09  7.1191E-08  2.5411E-08  
         51   6          733.3       3987.       273.6     -6.6127E-09  5.3818E-08  1.0161E-08  
         51   7          2517.       9678.       250.7     -5.5116E-09  1.2746E-07  9.3124E-09  
         51   8          1750.       5574.       643.5      1.1102E-09  7.2135E-08  2.3901E-08  
         51   9          667.2       4010.       231.5     -7.6567E-09  5.4433E-08  8.5976E-09  
         52   1          2441.       9699.       174.5     -6.6984E-09  1.2809E-07  6.4832E-09  
         52   2          1698.       5612.       611.1      2.0325E-10  7.2900E-08  2.2699E-08  
         52   3          630.0       4018.       206.4     -8.2214E-09  5.4703E-08  7.6679E-09  
         52   4          2309.       9724.       40.07     -8.6815E-09  1.2901E-07  1.4883E-09  
         52   5          1612.       5649.       560.1     -1.1831E-09  7.3798E-08  2.0804E-08  
         52   6          571.1       4039.       155.8     -9.1530E-09  5.5259E-08  5.7882E-09  
         52   7          2173.       9728.      -96.31     -1.0645E-08  1.2966E-07 -3.5771E-09  
         52   8          1523.       5678.       507.4     -2.5777E-09  7.4588E-08  1.8848E-08  
         52   9          510.6       4054.       104.3     -1.0080E-08  5.5727E-08  3.8740E-09  
         53   1          2109.       9733.      -183.4     -1.1592E-08  1.3001E-07 -6.8102E-09  
         53   2          1476.       5710.       466.5     -3.3820E-09  7.5244E-08  1.7328E-08  
         53   3          476.3       4056.       74.60     -1.0580E-08  5.5907E-08  2.7707E-09  
         53   4          1997.       9730.      -334.9     -1.3172E-08  1.3044E-07 -1.2440E-08  
         53   5          1396.       5736.       404.5     -4.6371E-09  7.5954E-08  1.5025E-08  
         53   6          424.5       4067.       15.55     -1.1367E-08  5.6287E-08  5.7745E-10  
         53   7          1882.       9706.      -487.0     -1.4716E-08  1.3059E-07 -1.8087E-08  
         53   8          1313.       5752.       341.3     -5.8923E-09  7.6550E-08  1.2678E-08  
         53   9          371.6       4072.      -44.01     -1.2142E-08  5.6574E-08 -1.6347E-09  
         54   1          1831.       9693.      -581.9     -1.5384E-08  1.3063E-07 -2.1613E-08  
         54   2          1274.       5777.       293.0     -6.5640E-09  7.7070E-08  1.0883E-08  
         54   3          340.9       4068.      -77.54     -1.2562E-08  5.6647E-08 -2.8802E-09  
         54   4          1743.       9658.      -745.6     -1.6500E-08  1.3051E-07 -2.7692E-08  
         54   5          1201.       5789.       221.8     -7.6541E-09  7.7555E-08  8.2377E-09  
         54   6          298.0       4067.      -143.3     -1.3173E-08  5.6821E-08 -5.3234E-09  
         54   7          1651.       9603.      -908.1     -1.7568E-08  1.3011E-07 -3.3728E-08  
         54   8          1126.       5792.       149.9     -8.7379E-09  7.7924E-08  5.5688E-09  
         54   9          254.1       4059.      -209.1     -1.3767E-08  5.6902E-08 -7.7677E-09  
         55   1          1616.       9571.      -1008.     -1.7930E-08  1.2981E-07 -3.7424E-08  
         55   2          1095.       5808.       95.57     -9.2512E-09  7.8283E-08  3.5496E-09  
         55   3          227.9       4048.      -245.5     -1.4093E-08  5.6855E-08 -9.1181E-09  
         55   4          1553.       9504.      -1178.     -1.8541E-08  1.2911E-07 -4.3745E-08  
         55   5          1031.       5806.       17.24     -1.0150E-08  7.8517E-08  6.4039E-10  
         55   6          195.1       4035.      -316.0     -1.4504E-08  5.6800E-08 -1.1736E-08  
         55   7          1488.       9416.      -1345.     -1.9099E-08  1.2813E-07 -4.9963E-08  
         55   8          965.6       5794.      -61.15     -1.1037E-08  7.8632E-08 -2.2714E-09  
         55   9          161.6       4014.      -386.0     -1.4895E-08  5.6652E-08 -1.4336E-08  
         56   1          1469.       9364.      -1446.     -1.9140E-08  1.2748E-07 -5.3697E-08  
         56   2          944.0       5800.      -119.9     -1.1371E-08  7.8811E-08 -4.4521E-09  
         56   3          140.4       3995.      -424.0     -1.5118E-08  5.6476E-08 -1.5750E-08  
         56   4          1433.       9263.      -1617.     -1.9227E-08  1.2618E-07 -6.0044E-08  
         56   5          890.2       5781.      -203.0     -1.2059E-08  7.8772E-08 -7.5396E-09  
         56   6          118.6       3968.      -497.0     -1.5312E-08  5.6178E-08 -1.8460E-08  
         56   7          1394.       9142.      -1783.     -1.9260E-08  1.2462E-07 -6.6225E-08  
         56   8          834.7       5753.      -285.6     -1.2733E-08  7.8615E-08 -1.0607E-08  
         56   9          96.32       3934.      -568.9     -1.5484E-08  5.5787E-08 -2.1131E-08  
         57   1          1393.       9071.      -1881.     -1.8982E-08  1.2362E-07 -6.9864E-08  
         57   2          823.6       5749.      -346.8     -1.2874E-08  7.8603E-08 -1.2880E-08  
         57   3          80.28       3907.      -607.5     -1.5600E-08  5.5477E-08 -2.2563E-08  
         57   4          1383.       8936.      -2047.     -1.8546E-08  1.2173E-07 -7.6017E-08  
         57   5          780.3       5714.      -432.2     -1.3340E-08  7.8279E-08 -1.6055E-08  
         57   6          70.05       3866.      -680.5     -1.5568E-08  5.4928E-08 -2.5275E-08  
         57   7          1370.       8783.      -2206.     -1.8064E-08  1.1960E-07 -8.1946E-08  
         57   8          735.4       5669.      -516.6     -1.3792E-08  7.7841E-08 -1.9187E-08  
         57   9          59.41       3818.      -751.9     -1.5515E-08  5.4290E-08 -2.7929E-08  
         58   1          1385.       8694.      -2298.     -1.7478E-08  1.1826E-07 -8.5360E-08  
         58   2          735.2       5655.      -578.3     -1.3732E-08  7.7630E-08 -2.1479E-08  
         58   3          48.64       3784.      -789.7     -1.5521E-08  5.3845E-08 -2.9332E-08  
         58   4          1400.       8527.      -2453.     -1.6544E-08  1.1582E-07 -9.1108E-08  
         58   5          702.4       5602.      -663.6     -1.3975E-08  7.7019E-08 -2.4646E-08  
         58   6          50.00       3728.      -860.3     -1.5264E-08  5.3046E-08 -3.1955E-08  
         58   7          1413.       8344.      -2600.     -1.5577E-08  1.1315E-07 -9.6577E-08  
         58   8          668.0       5541.      -747.1     -1.4206E-08  7.6298E-08 -2.7750E-08  
         58   9          50.89       3667.      -928.9     -1.4988E-08  5.2165E-08 -3.4500E-08  
         59   1          1442.       8238.      -2683.     -1.4709E-08  1.1150E-07 -9.9646E-08  
         59   2          678.8       5516.      -807.3     -1.3943E-08  7.5890E-08 -2.9985E-08  
         59   3          45.18       3625.      -964.6     -1.4889E-08  5.1589E-08 -3.5829E-08  
         59   4          1480.       8043.      -2821.     -1.3322E-08  1.0855E-07 -1.0479E-07  
         59   5          656.1       5447.      -889.9     -1.3970E-08  7.4998E-08 -3.3054E-08  
         59   6          57.67       3556.      -1030.     -1.4415E-08  5.0551E-08 -3.8273E-08  
         59   7          1516.       7833.      -2951.     -1.1919E-08  1.0540E-07 -1.0961E-07  
         59   8          631.8       5370.      -970.3     -1.3988E-08  7.4004E-08 -3.6038E-08  
         59   9          69.54       3481.      -1094.     -1.3927E-08  4.9438E-08 -4.0620E-08  
         60   1          1557.       7711.      -3021.     -1.0806E-08  1.0349E-07 -1.1223E-07  
         60   2          653.2       5334.      -1027.     -1.3530E-08  7.3405E-08 -3.8142E-08  
         60   3          68.47       3432.      -1126.     -1.3732E-08  4.8739E-08 -4.1831E-08  
         60   4          1615.       7491.      -3139.     -9.0278E-09  1.0009E-07 -1.1660E-07  
         60   5          639.9       5249.      -1105.     -1.3356E-08  7.2247E-08 -4.1025E-08  
         60   6          91.17       3351.      -1185.     -1.3059E-08  4.7481E-08 -4.4010E-08  
         60   7          1670.       7258.      -3247.     -7.2554E-09  9.6535E-08 -1.2060E-07  
         60   8          624.7       5157.      -1179.     -1.3178E-08  7.0996E-08 -4.3805E-08  
         60   9          113.0       3265.      -1240.     -1.2378E-08  4.6157E-08 -4.6075E-08  
         61   1          1721.       7125.      -3303.     -5.9444E-09  9.4403E-08 -1.2268E-07  
         61   2          656.0       5112.      -1231.     -1.2539E-08  7.0223E-08 -4.5706E-08  
         61   3          115.9       3209.      -1269.     -1.2098E-08  4.5349E-08 -4.7127E-08  
         61   4          1795.       6884.      -3396.     -3.8536E-09  9.0650E-08 -1.2613E-07  
         61   5          650.8       5013.      -1301.     -1.2187E-08  6.8822E-08 -4.8324E-08  
         61   6          147.4       3117.      -1318.     -1.1253E-08  4.3898E-08 -4.8962E-08  
         61   7          1864.       6633.      -3478.     -1.7939E-09  8.6770E-08 -1.2918E-07  
         61   8          643.3       4907.      -1368.     -1.1838E-08  6.7338E-08 -5.0823E-08  
         61   9          177.7       3021.      -1364.     -1.0407E-08  4.2392E-08 -5.0672E-08  
         62   1          1923.       6490.      -3517.     -3.3868E-10  8.4477E-08 -1.3065E-07  
         62   2          683.5       4854.      -1412.     -1.1039E-08  6.6413E-08 -5.2458E-08  
         62   3          183.8       2959.      -1387.     -1.0058E-08  4.1490E-08 -5.1529E-08  
         62   4          2009.       6235.      -3583.      1.9745E-09  8.0460E-08 -1.3307E-07  
         62   5          684.8       4741.      -1474.     -1.0537E-08  6.4798E-08 -5.4741E-08  
         62   6          222.4       2858.      -1426.     -9.0730E-09  3.9881E-08 -5.2954E-08  
         62   7          2087.       5971.      -3637.      4.2287E-09  7.6356E-08 -1.3508E-07  
         62   8          683.5       4623.      -1532.     -1.0049E-08  6.3113E-08 -5.6895E-08  
         62   9          259.4       2754.      -1460.     -8.0969E-09  3.8229E-08 -5.4243E-08  
         63   1          2151.       5823.      -3659.      5.7688E-09  7.3963E-08 -1.3589E-07  
         63   2          731.0       4564.      -1567.     -9.1152E-09  6.2063E-08 -5.8207E-08  
         63   3          267.5       2688.      -1478.     -7.6980E-09  3.7253E-08 -5.4879E-08  
         63   4          2242.       5558.      -3694.      8.2057E-09  6.9787E-08 -1.3721E-07  
         63   5          736.9       4440.      -1618.     -8.5006E-09  6.0270E-08 -6.0100E-08  
         63   6          311.1       2580.      -1503.     -6.6135E-09  3.5525E-08 -5.5841E-08  
         63   7          2325.       5287.      -3719.      1.0555E-08  6.5563E-08 -1.3813E-07  
         63   8          739.9       4311.      -1665.     -7.9077E-09  5.8420E-08 -6.1856E-08  
         63   9          352.5       2470.      -1525.     -5.5478E-09  3.3769E-08 -5.6660E-08  
         64   1          2389.       5136.      -3722.      1.2117E-08  6.3135E-08 -1.3826E-07  
         64   2          793.2       4247.      -1691.     -6.8720E-09  5.7278E-08 -6.2803E-08  
         64   3          361.6       2400.      -1536.     -5.1206E-09  3.2740E-08 -5.7053E-08  
         64   4          2481.       4868.      -3728.      1.4575E-08  5.8907E-08 -1.3845E-07  
         64   5          801.6       4115.      -1730.     -6.1830E-09  5.5346E-08 -6.4265E-08  
         64   6          407.8       2288.      -1548.     -3.9809E-09  3.0940E-08 -5.7514E-08  
         64   7          2563.       4596.      -3722.      1.6916E-08  5.4672E-08 -1.3825E-07  
         64   8          806.6       3978.      -1766.     -5.5256E-09  5.3372E-08 -6.5588E-08  
         64   9          451.3       2174.      -1557.     -2.8704E-09  2.9125E-08 -5.7831E-08  
         65   1          2625.       4446.      -3708.      1.8438E-08  5.2273E-08 -1.3771E-07  
         65   2          863.8       3911.      -1781.     -4.4232E-09  5.2174E-08 -6.6138E-08  
         65   3          460.1       2103.      -1561.     -2.4384E-09  2.8067E-08 -5.7970E-08  
         65   4          2711.       4180.      -3683.      2.0813E-08  4.8102E-08 -1.3679E-07  
         65   5          872.5       3772.      -1808.     -3.7015E-09  5.0147E-08 -6.7145E-08  
         65   6          506.3       1989.      -1559.     -1.2909E-09  2.6243E-08 -5.7910E-08  
         65   7          2787.       3913.      -3648.      2.3044E-08  4.3962E-08 -1.3549E-07  
         65   8          877.4       3630.      -1831.     -3.0213E-09  4.8092E-08 -6.8014E-08  
         65   9          549.4       1874.      -1554.     -1.8365E-10  2.4417E-08 -5.7710E-08  
         66   1          2843.       3769.      -3616.      2.4464E-08  4.1655E-08 -1.3431E-07  
         66   2          936.4       3562.      -1835.     -1.8897E-09  4.6876E-08 -6.8152E-08  
         66   3          556.6       1802.      -1551.      2.2935E-10  2.3355E-08 -5.7592E-08  
         66   4          2919.       3511.      -3563.      2.6659E-08  3.7644E-08 -1.3232E-07  
         66   5          943.2       3419.      -1850.     -1.1779E-09  4.4798E-08 -6.8696E-08  
         66   6          600.2       1689.      -1535.      1.3354E-09  2.1557E-08 -5.7011E-08  
         66   7          2984.       3254.      -3500.      2.8683E-08  3.3701E-08 -1.3000E-07  
         66   8          945.7       3273.      -1861.     -5.1720E-10  4.2705E-08 -6.9107E-08  
         66   9          640.1       1576.      -1516.      2.3906E-09  1.9769E-08 -5.6297E-08  
         67   1          3031.       3118.      -3452.      2.9944E-08  3.1545E-08 -1.2822E-07  
         67   2          1004.       3207.      -1853.      6.0547E-10  4.1509E-08 -6.8833E-08  
         67   3          644.5       1504.      -1506.      2.7606E-09  1.8727E-08 -5.5929E-08  
         67   4          3093.       2873.      -3373.      3.1866E-08  2.7792E-08 -1.2527E-07  
         67   5          1007.       3062.      -1856.      1.2656E-09  3.9424E-08 -6.8923E-08  
         67   6          682.9       1395.      -1477.      3.7764E-09  1.7002E-08 -5.4843E-08  
         67   7          3141.       2632.      -3285.      3.3596E-08  2.4137E-08 -1.2201E-07  
         67   8          1005.       2915.      -1855.      1.8657E-09  3.7336E-08 -6.8889E-08  
         67   9          717.1       1286.      -1444.      4.7314E-09  1.5302E-08 -5.3638E-08  
         68   1          3177.       2506.      -3223.      3.4648E-08  2.2184E-08 -1.1973E-07  
         68   2          1062.       2852.      -1837.      2.9426E-09  3.6199E-08 -6.8217E-08  
         68   3          717.4       1216.      -1428.      5.0354E-09  1.4303E-08 -5.3035E-08  
[...]
      4402      -1.6231E-07  3.6484E-07   0.000       0.000     
      4403      -1.6226E-07  3.7830E-07   0.000       0.000     
      4404      -1.6221E-07  3.9176E-07   0.000       0.000     
      4405      -1.6216E-07  4.0521E-07   0.000       0.000     
      4406      -1.6211E-07  4.1866E-07   0.000       0.000     
      4407      -1.6206E-07  4.3210E-07   0.000       0.000     
      4408      -1.6200E-07  4.4553E-07   0.000       0.000     
      4409      -1.6195E-07  4.5897E-07   0.000       0.000     
      4410      -1.6190E-07  4.7239E-07   0.000       0.000     
      4411      -1.6184E-07  4.8581E-07   0.000       0.000     
      4412      -1.6179E-07  4.9923E-07   0.000       0.000     
      4413      -1.6173E-07  5.1263E-07   0.000       0.000     
      4414      -1.6168E-07  5.2604E-07   0.000       0.000     
      4415      -1.6162E-07  5.3943E-07   0.000       0.000     
      4416      -1.5756E-07  5.3945E-07   0.000       0.000     
      4417      -1.5350E-07  5.3946E-07   0.000       0.000     
      4418      -1.4944E-07  5.3946E-07   0.000       0.000     
      4419      -1.4538E-07  5.3946E-07   0.000       0.000     
      4420      -1.4133E-07  5.3945E-07   0.000       0.000     
      4421      -1.3727E-07  5.3944E-07   0.000       0.000     
      4422      -1.3321E-07  5.3942E-07   0.000       0.000     
      4423      -1.2915E-07  5.3940E-07   0.000       0.000     
      4424      -1.2509E-07  5.3938E-07   0.000       0.000     
      4425      -1.2104E-07  5.3934E-07   0.000       0.000     
      4426      -1.1698E-07  5.3931E-07   0.000       0.000     
      4427      -1.1293E-07  5.3927E-07   0.000       0.000     
      4428      -1.0887E-07  5.3922E-07   0.000       0.000     
      4429      -1.0482E-07  5.3917E-07   0.000       0.000     
      4430      -1.0077E-07  5.3912E-07   0.000       0.000     
      4431      -9.6716E-08  5.3906E-07   0.000       0.000     
      4432      -9.2666E-08  5.3899E-07   0.000       0.000     
      4433      -8.8618E-08  5.3893E-07   0.000       0.000     
      4434      -8.4571E-08  5.3886E-07   0.000       0.000     
      4435      -8.0526E-08  5.3878E-07   0.000       0.000     
      4436      -7.6482E-08  5.3870E-07   0.000       0.000     
      4437      -7.2440E-08  5.3862E-07   0.000       0.000     
      4438      -6.8399E-08  5.3853E-07   0.000       0.000     
      4439      -6.4360E-08  5.3844E-07   0.000       0.000     
      4440      -6.0323E-08  5.3834E-07   0.000       0.000     
      4441      -5.6288E-08  5.3824E-07   0.000       0.000     
      4442      -5.2255E-08  5.3814E-07   0.000       0.000     
      4443      -4.8224E-08  5.3804E-07   0.000       0.000     
      4444      -4.4194E-08  5.3793E-07   0.000       0.000     
      4445      -4.0167E-08  5.3781E-07   0.000       0.000     
      4446      -3.6142E-08  5.3770E-07   0.000       0.000     
      4447      -3.2118E-08  5.3758E-07   0.000       0.000     
      4448      -2.8097E-08  5.3746E-07   0.000       0.000     
      4449      -2.4077E-08  5.3733E-07   0.000       0.000     
      4450      -2.0060E-08  5.3720E-07   0.000       0.000     
      4451      -1.6044E-08  5.3707E-07   0.000       0.000     
      4452      -1.2030E-08  5.3694E-07   0.000       0.000     
      4453      -8.0186E-09  5.3681E-07   0.000       0.000     
      4454      -4.0084E-09  5.3667E-07   0.000       0.000     
      4455        0.000      5.3653E-07  -1.371       0.000     
      4456      -1.7596E-07   0.000       0.000      -4001.     
      4458      -1.7596E-07  2.9232E-08   0.000       0.000     
      4460      -1.7594E-07  5.8462E-08   0.000       0.000     
      4462      -1.7592E-07  8.7691E-08   0.000       0.000     
      4464      -1.7589E-07  1.1692E-07   0.000       0.000     
      4466      -1.7585E-07  1.4614E-07   0.000       0.000     
      4468      -1.7580E-07  1.7535E-07   0.000       0.000     
      4470      -1.7575E-07  2.0456E-07   0.000       0.000     
      4472      -1.7569E-07  2.3376E-07   0.000       0.000     
      4474      -1.7562E-07  2.6295E-07   0.000       0.000     
      4476      -1.7555E-07  2.9213E-07   0.000       0.000     
      4478      -1.7548E-07  3.2129E-07   0.000       0.000     
      4480      -1.7540E-07  3.5045E-07   0.000       0.000     
      4482      -1.7532E-07  3.7959E-07   0.000       0.000     
      4484      -1.7524E-07  4.0871E-07   0.000       0.000     
      4486      -1.7516E-07  4.3783E-07   0.000       0.000     
      4488      -1.7507E-07  4.6692E-07   0.000       0.000     
      4490      -1.7498E-07  4.9600E-07   0.000       0.000     
      4492      -1.7489E-07  5.2506E-07   0.000       0.000     
      4494      -1.7480E-07  5.5411E-07   0.000       0.000     
      4496      -1.7470E-07  5.8313E-07   0.000       0.000     
      4498      -1.6594E-07  5.8316E-07   0.000       0.000     
      4500      -1.5717E-07  5.8317E-07   0.000       0.000     
      4502      -1.4840E-07  5.8317E-07   0.000       0.000     
      4504      -1.3964E-07  5.8315E-07   0.000       0.000     
      4506      -1.3088E-07  5.8312E-07   0.000       0.000     
      4508      -1.2212E-07  5.8307E-07   0.000       0.000     
      4510      -1.1336E-07  5.8301E-07   0.000       0.000     
      4512      -1.0461E-07  5.8294E-07   0.000       0.000     
      4514      -9.5858E-08  5.8285E-07   0.000       0.000     
      4516      -8.7114E-08  5.8276E-07   0.000       0.000     
      4518      -7.8375E-08  5.8265E-07   0.000       0.000     
      4520      -6.9642E-08  5.8252E-07   0.000       0.000     
      4522      -6.0914E-08  5.8239E-07   0.000       0.000     
      4524      -5.2193E-08  5.8225E-07   0.000       0.000     
      4526      -4.3479E-08  5.8209E-07   0.000       0.000     
      4528      -3.4771E-08  5.8192E-07   0.000       0.000     
      4530      -2.6069E-08  5.8174E-07   0.000       0.000     
      4532      -1.7374E-08  5.8156E-07   0.000       0.000     
      4534      -8.6842E-09  5.8136E-07   0.000       0.000     
      4536        0.000      5.8115E-07  -3.164       0.000     
      4537      -1.8882E-07   0.000       0.000      -2000.     
      4538      -1.8882E-07  1.5695E-08   0.000       0.000     
      4539      -1.8881E-07  3.1390E-08   0.000       0.000     
      4540      -1.8881E-07  4.7085E-08   0.000       0.000     
      4541      -1.8880E-07  6.2780E-08   0.000       0.000     
      4542      -1.8879E-07  7.8474E-08   0.000       0.000     
      4543      -1.8878E-07  9.4168E-08   0.000       0.000     
      4544      -1.8877E-07  1.0986E-07   0.000       0.000     
      4545      -1.8875E-07  1.2555E-07   0.000       0.000     
      4546      -1.8874E-07  1.4125E-07   0.000       0.000     
      4547      -1.8872E-07  1.5694E-07   0.000       0.000     
      4548      -1.8870E-07  1.7263E-07   0.000       0.000     
      4549      -1.8868E-07  1.8832E-07   0.000       0.000     
      4550      -1.8866E-07  2.0401E-07   0.000       0.000     
      4551      -1.8864E-07  2.1969E-07   0.000       0.000     
      4552      -1.8861E-07  2.3538E-07   0.000       0.000     
      4553      -1.8859E-07  2.5106E-07   0.000       0.000     
      4554      -1.8856E-07  2.6675E-07   0.000       0.000     
      4555      -1.8853E-07  2.8243E-07   0.000       0.000     
      4556      -1.8850E-07  2.9811E-07   0.000       0.000     
      4557      -1.8847E-07  3.1378E-07   0.000       0.000     
      4558      -1.8844E-07  3.2946E-07   0.000       0.000     
      4559      -1.8841E-07  3.4513E-07   0.000       0.000     
      4560      -1.8838E-07  3.6081E-07   0.000       0.000     
      4561      -1.8835E-07  3.7647E-07   0.000       0.000     
      4562      -1.8832E-07  3.9214E-07   0.000       0.000     
      4563      -1.8829E-07  4.0781E-07   0.000       0.000     
      4564      -1.8825E-07  4.2347E-07   0.000       0.000     
      4565      -1.8822E-07  4.3913E-07   0.000       0.000     
      4566      -1.8818E-07  4.5479E-07   0.000       0.000     
      4567      -1.8815E-07  4.7044E-07   0.000       0.000     
      4568      -1.8811E-07  4.8609E-07   0.000       0.000     
      4569      -1.8808E-07  5.0174E-07   0.000       0.000     
      4570      -1.8804E-07  5.1739E-07   0.000       0.000     
      4571      -1.8801E-07  5.3303E-07   0.000       0.000     
      4572      -1.8797E-07  5.4867E-07   0.000       0.000     
      4573      -1.8793E-07  5.6431E-07   0.000       0.000     
      4574      -1.8790E-07  5.7995E-07   0.000       0.000     
      4575      -1.8786E-07  5.9558E-07   0.000       0.000     
      4576      -1.8782E-07  6.1121E-07   0.000       0.000     
      4577      -1.8778E-07  6.2683E-07   0.000       0.000     
      4578      -1.8307E-07  6.2685E-07   0.000       0.000     
      4579      -1.7836E-07  6.2687E-07   0.000       0.000     
      4580      -1.7366E-07  6.2688E-07   0.000       0.000     
      4581      -1.6895E-07  6.2689E-07   0.000       0.000     
      4582      -1.6424E-07  6.2689E-07   0.000       0.000     
      4583      -1.5953E-07  6.2690E-07   0.000       0.000     
      4584      -1.5483E-07  6.2690E-07   0.000       0.000     
      4585      -1.5012E-07  6.2690E-07   0.000       0.000     
      4586      -1.4541E-07  6.2690E-07   0.000       0.000     
      4587      -1.4071E-07  6.2689E-07   0.000       0.000     
      4588      -1.3600E-07  6.2689E-07   0.000       0.000     
      4589      -1.3130E-07  6.2688E-07   0.000       0.000     
      4590      -1.2659E-07  6.2687E-07   0.000       0.000     
      4591      -1.2189E-07  6.2685E-07   0.000       0.000     
      4592      -1.1719E-07  6.2684E-07   0.000       0.000     
      4593      -1.1249E-07  6.2682E-07   0.000       0.000     
      4594      -1.0779E-07  6.2680E-07   0.000       0.000     
      4595      -1.0309E-07  6.2678E-07   0.000       0.000     
      4596      -9.8389E-08  6.2676E-07   0.000       0.000     
      4597      -9.3691E-08  6.2673E-07   0.000       0.000     
      4598      -8.8995E-08  6.2670E-07   0.000       0.000     
      4599      -8.4299E-08  6.2668E-07   0.000       0.000     
      4600      -7.9605E-08  6.2664E-07   0.000       0.000     
      4601      -7.4912E-08  6.2661E-07   0.000       0.000     
      4602      -7.0221E-08  6.2658E-07   0.000       0.000     
      4603      -6.5530E-08  6.2654E-07   0.000       0.000     
      4604      -6.0841E-08  6.2650E-07   0.000       0.000     
      4605      -5.6154E-08  6.2646E-07   0.000       0.000     
      4606      -5.1468E-08  6.2641E-07   0.000       0.000     
      4607      -4.6783E-08  6.2637E-07   0.000       0.000     
      4608      -4.2099E-08  6.2632E-07   0.000       0.000     
      4609      -3.7417E-08  6.2627E-07   0.000       0.000     
      4610      -3.2736E-08  6.2621E-07   0.000       0.000     
      4611      -2.8056E-08  6.2616E-07   0.000       0.000     
      4612      -2.3377E-08  6.2610E-07   0.000       0.000     
      4613      -1.8700E-08  6.2604E-07   0.000       0.000     
      4614      -1.4023E-08  6.2598E-07   0.000       0.000     
      4615      -9.3479E-09  6.2591E-07   0.000       0.000     
      4616      -4.6735E-09  6.2585E-07   0.000       0.000     
      4617        0.000      6.2578E-07  -1.841       0.000     
      4618      -2.0167E-07   0.000       0.000      -3999.     
      4620      -2.0167E-07  3.3548E-08   0.000       0.000     
      4622      -2.0166E-07  6.7095E-08   0.000       0.000     
      4624      -2.0164E-07  1.0064E-07   0.000       0.000     
      4626      -2.0162E-07  1.3419E-07   0.000       0.000     
      4628      -2.0159E-07  1.6773E-07   0.000       0.000     
      4630      -2.0156E-07  2.0128E-07   0.000       0.000     
      4632      -2.0152E-07  2.3482E-07   0.000       0.000     
      4634      -2.0148E-07  2.6836E-07   0.000       0.000     
      4636      -2.0144E-07  3.0190E-07   0.000       0.000     
      4638      -2.0139E-07  3.3544E-07   0.000       0.000     
      4640      -2.0134E-07  3.6897E-07   0.000       0.000     
      4642      -2.0129E-07  4.0250E-07   0.000       0.000     
      4644      -2.0124E-07  4.3602E-07   0.000       0.000     
      4646      -2.0119E-07  4.6954E-07   0.000       0.000     
      4648      -2.0114E-07  5.0305E-07   0.000       0.000     
      4650      -2.0109E-07  5.3656E-07   0.000       0.000     
      4652      -2.0103E-07  5.7006E-07   0.000       0.000     
      4654      -2.0097E-07  6.0356E-07   0.000       0.000     
      4656      -2.0092E-07  6.3705E-07   0.000       0.000     
      4658      -2.0086E-07  6.7054E-07   0.000       0.000     
      4660      -1.9079E-07  6.7057E-07   0.000       0.000     
      4662      -1.8073E-07  6.7060E-07   0.000       0.000     
      4664      -1.7066E-07  6.7063E-07   0.000       0.000     
      4666      -1.6060E-07  6.7065E-07   0.000       0.000     
      4668      -1.5054E-07  6.7067E-07   0.000       0.000     
      4670      -1.4047E-07  6.7068E-07   0.000       0.000     
      4672      -1.3042E-07  6.7069E-07   0.000       0.000     
      4674      -1.2036E-07  6.7070E-07   0.000       0.000     
      4676      -1.1031E-07  6.7071E-07   0.000       0.000     
      4678      -1.0026E-07  6.7071E-07   0.000       0.000     
      4680      -9.0211E-08  6.7070E-07   0.000       0.000     
      4682      -8.0170E-08  6.7070E-07   0.000       0.000     
      4684      -7.0134E-08  6.7069E-07   0.000       0.000     
      4686      -6.0102E-08  6.7067E-07   0.000       0.000     
      4688      -5.0075E-08  6.7064E-07   0.000       0.000     
      4690      -4.0052E-08  6.7061E-07   0.000       0.000     
      4692      -3.0034E-08  6.7057E-07   0.000       0.000     
      4694      -2.0020E-08  6.7053E-07   0.000       0.000     
      4696      -1.0009E-08  6.7047E-07   0.000       0.000     
      4698        0.000      6.7040E-07  -4.578       0.000     
      4699      -2.1453E-07   0.000       0.000      -999.7     
      4700      -2.1453E-07  1.7852E-08   0.000       0.000     
      4701      -2.1452E-07  3.5703E-08   0.000       0.000     
      4702      -2.1452E-07  5.3555E-08   0.000       0.000     
      4703      -2.1452E-07  7.1407E-08   0.000       0.000     
      4704      -2.1451E-07  8.9259E-08   0.000       0.000     
      4705      -2.1450E-07  1.0711E-07   0.000       0.000     
      4706      -2.1449E-07  1.2496E-07   0.000       0.000     
      4707      -2.1448E-07  1.4282E-07   0.000       0.000     
      4708      -2.1447E-07  1.6067E-07   0.000       0.000     
      4709      -2.1446E-07  1.7853E-07   0.000       0.000     
      4710      -2.1445E-07  1.9638E-07   0.000       0.000     
      4711      -2.1443E-07  2.1424E-07   0.000       0.000     
      4712      -2.1442E-07  2.3209E-07   0.000       0.000     
      4713      -2.1440E-07  2.4995E-07   0.000       0.000     
      4714      -2.1439E-07  2.6780E-07   0.000       0.000     
      4715      -2.1437E-07  2.8566E-07   0.000       0.000     
      4716      -2.1436E-07  3.0352E-07   0.000       0.000     
      4717      -2.1434E-07  3.2137E-07   0.000       0.000     
      4718      -2.1432E-07  3.3923E-07   0.000       0.000     
      4719      -2.1431E-07  3.5709E-07   0.000       0.000     
      4720      -2.1429E-07  3.7495E-07   0.000       0.000     
      4721      -2.1427E-07  3.9281E-07   0.000       0.000     
      4722      -2.1426E-07  4.1066E-07   0.000       0.000     
      4723      -2.1424E-07  4.2852E-07   0.000       0.000     
      4724      -2.1422E-07  4.4638E-07   0.000       0.000     
      4725      -2.1420E-07  4.6424E-07   0.000       0.000     
      4726      -2.1418E-07  4.8209E-07   0.000       0.000     
      4727      -2.1417E-07  4.9995E-07   0.000       0.000     
      4728      -2.1415E-07  5.1781E-07   0.000       0.000     
      4729      -2.1413E-07  5.3567E-07   0.000       0.000     
      4730      -2.1411E-07  5.5352E-07   0.000       0.000     
      4731      -2.1409E-07  5.7138E-07   0.000       0.000     
      4732      -2.1407E-07  5.8924E-07   0.000       0.000     
      4733      -2.1405E-07  6.0709E-07   0.000       0.000     
      4734      -2.1403E-07  6.2495E-07   0.000       0.000     
      4735      -2.1401E-07  6.4281E-07   0.000       0.000     
      4736      -2.1399E-07  6.6066E-07   0.000       0.000     
      4737      -2.1397E-07  6.7852E-07   0.000       0.000     
      4738      -2.1395E-07  6.9638E-07   0.000       0.000     
      4739      -2.1393E-07  7.1424E-07   0.000       0.000     
      4740      -2.0858E-07  7.1426E-07   0.000       0.000     
      4741      -2.0322E-07  7.1428E-07   0.000       0.000     
      4742      -1.9786E-07  7.1430E-07   0.000       0.000     
      4743      -1.9250E-07  7.1432E-07   0.000       0.000     
      4744      -1.8715E-07  7.1434E-07   0.000       0.000     
      4745      -1.8179E-07  7.1436E-07   0.000       0.000     
      4746      -1.7643E-07  7.1438E-07   0.000       0.000     
      4747      -1.7107E-07  7.1440E-07   0.000       0.000     
      4748      -1.6572E-07  7.1442E-07   0.000       0.000     
      4749      -1.6036E-07  7.1444E-07   0.000       0.000     
      4750      -1.5500E-07  7.1447E-07   0.000       0.000     
      4751      -1.4965E-07  7.1449E-07   0.000       0.000     
      4752      -1.4429E-07  7.1451E-07   0.000       0.000     
      4753      -1.3893E-07  7.1453E-07   0.000       0.000     
      4754      -1.3358E-07  7.1456E-07   0.000       0.000     
      4755      -1.2822E-07  7.1458E-07   0.000       0.000     
      4756      -1.2287E-07  7.1461E-07   0.000       0.000     
      4757      -1.1752E-07  7.1463E-07   0.000       0.000     
      4758      -1.1216E-07  7.1466E-07   0.000       0.000     
      4759      -1.0681E-07  7.1468E-07   0.000       0.000     
      4760      -1.0146E-07  7.1471E-07   0.000       0.000     
      4761      -9.6110E-08  7.1473E-07   0.000       0.000     
      4762      -9.0761E-08  7.1476E-07   0.000       0.000     
      4763      -8.5413E-08  7.1478E-07   0.000       0.000     
      4764      -8.0067E-08  7.1481E-07   0.000       0.000     
      4765      -7.4721E-08  7.1483E-07   0.000       0.000     
      4766      -6.9377E-08  7.1486E-07   0.000       0.000     
      4767      -6.4034E-08  7.1488E-07   0.000       0.000     
      4768      -5.8692E-08  7.1490E-07   0.000       0.000     
      4769      -5.3352E-08  7.1492E-07   0.000       0.000     
      4770      -4.8013E-08  7.1494E-07   0.000       0.000     
      4771      -4.2675E-08  7.1496E-07   0.000       0.000     
      4772      -3.7338E-08  7.1497E-07   0.000       0.000     
      4773      -3.2002E-08  7.1499E-07   0.000       0.000     
      4774      -2.6667E-08  7.1500E-07   0.000       0.000     
      4775      -2.1332E-08  7.1501E-07   0.000       0.000     
      4776      -1.5999E-08  7.1502E-07   0.000       0.000     
      4777      -1.0665E-08  7.1502E-07   0.000       0.000     
      4778      -5.3327E-09  7.1503E-07   0.000       0.000     
      4779        0.000      7.1503E-07  -1.417       0.000     

 MAXIMUM          0.000      7.1503E-07   172.9       0.000    
 AT NODE              3483        4779        3483           2

 MINIMUM        -2.1453E-07 -1.5319E-11  -73.38      -4106.    
 AT NODE              4699          79        3645        3484


          THE ANALYSIS HAS BEEN COMPLETED



                              ANALYSIS COMPLETE
                              WITH   103 WARNING MESSAGES ON THE DAT FILE



     JOB TIME SUMMARY
       USER TIME (SEC)      =   1.1000    
       SYSTEM TIME (SEC)    =  0.30000    
       TOTAL CPU TIME (SEC) =   1.4000    
       WALLCLOCK TIME (SEC) =          2
