1

  ABAQUS VERSION 6.4-1                                     DATE 23-Apr-2008   TIME 15:21:55        PAGE     1
 





    AAAAAA     BBBBBBBBB      AAAAAA      QQQQQQQQ    U        U    SSSSSSSS
   A      A    B        B    A      A    Q        Q   U        U   S
  A        A   B        B   A        A   Q        Q   U        U   S
  A        A   B        B   A        A   Q        Q   U        U   S
  AAAAAAAAAA   BBBBBBBBB    AAAAAAAAAA   Q        Q   U        U    SSSSSSSS
  A        A   B        B   A        A   Q    Q   Q   U        U            S
  A        A   B        B   A        A   Q     Q  Q   U        U            S
  A        A   B        B   A        A   Q      Q Q   U        U            S
  A        A   BBBBBBBBB    A        A    QQQQQQQQ     UUUUUUUU     SSSSSSSS
 



                      This program has been developed by
 
                                  ABAQUS, Inc.
                                1080 Main Street
                             Pawtucket, R.I. 02860
 


                   Available for internal use at University of Virginia. 
                   Support of your usage is not included in the license
                   price.  To purchase support, or send information to ABAQUS, Inc.
                   about a suspected error, please follow the procedures
                   described in the ABAQUS academic support instructions
                   document. A copy of this document has been sent to the
                   designated user at your site. Additional copies can be
                   obtained by contacting ABAQUS, Inc. or your local ABAQUS
                   representative.

                   Should you have any questions concerning the terms of
                   this academic license, please contact the designated
                   user at your university, Brad Sayler
 
                        On machine d107-02 
                        you are authorized to run
                        ABAQUS/Standard until 31-Dec-2008

                        Your site id is: 08UVA_X 


 
                    For assistance or any other information contact

                           ABAQUS, INC.
                           1080 Main Street
                           Pawtucket, RI 02860-4847
                           U.S.A.
                           Tel: (1) 401 727 4200
                           Fax: (1) 401 727 4208
                           E-mail: info@abaqus.com
                           Web: http://www.abaqus.com
                           Technical support: support@abaqus.com 


                * * * * * * * * * * * * * * * * * * * * * * * * * * * * * * 
                *                                                         * 
                *                   *****************                     * 
                *                   *  N O T I C E  *                     * 
                *                   *****************                     * 
                *                                                         * 
                *                                                         * 
                *                 ABAQUS VERSION 6.4-1                    * 
                *                                                         * 
                *          BUILD ID: 2003_09_29-11.18.28 46457            * 
                *                                                         * 
                *                                                         * 
                *  Please make sure you are using version 6.4 manuals     * 
                *  plus the notes accompanying this release.              * 
                *                                                         * 
                *                                                         * 
                *   This program may not be used for commercial purposes  * 
                *           without payment of a monthly charge.          * 
                *                                                         * 
                * * * * * * * * * * * * * * * * * * * * * * * * * * * * * * 


 



     PROCESSING PART, INSTANCE, AND ASSEMBLY INFORMATION
   *******************************************************


     END PROCESSING PART, INSTANCE, AND ASSEMBLY INFORMATION
   ***********************************************************




     OPTIONS BEING PROCESSED
   ***************************


  *Heading
          CRACK TIP: 8-noded elements                                                                                                                                                                                                                                     
  *NODE,NSET=N1
  *NODE,NSET=N1
  *NODE,NSET=N2
  *NODE,NSET=N3
  *NODE,NSET=N4
  *NODE,NSET=N5
  *NODE,NSET=N6
  *NODE,NSET=N7
  *NODE,NSET=N8
  *NODE,NSET=N9
  *NODE,NSET=N10
  *NGEN,NSET=ARC1
  *NGEN,NSET=ARC2,LINE=C
  *NGEN,NSET=ARC3,LINE=C
  *NGEN,NSET=ARC4,LINE=C
  *NFILL,NSET=ALL, SINGULAR=1
  *NFILL,NSET=ALL, BIAS=1.000
  *NFILL,NSET=ALL, BIAS=1.000
  *NGEN,NSET=ROW1
  *NGEN,NSET=ROW1
  *NFILL,NSET=ALL, BIAS= 1.000
  *ELEMENT, ELSET=ALL, TYPE=CPS8
  *ELGEN, ELSET=ALL
  *ELSET,ELSET=TOP,GENERATE
  *NSET, NSET=YAXIS,GENERATE
  *NSET, NSET=XAXIS,GENERATE
  *MATERIAL,NAME=ALUM
  *ELASTIC
  *SOLID SECTION, ELSET=ALL, MAT=ALUM
  *BOUNDARY
  *SOLID SECTION, ELSET=ALL, MAT=ALUM
  *STEP
  *STEP
  *STEP
  *STATIC
  *BOUNDARY
  *DLOAD
  *EL PRINT
  *END STEP
  *STEP
  *STATIC
  *BOUNDARY
  *NODE PRINT
  *END STEP

 ***WARNING: ELEMENT 1 HAS AN ASPECT RATIO EXCEEDING 100 TO 1.

 ***WARNING: ELEMENT 2 HAS AN ASPECT RATIO EXCEEDING 100 TO 1.

 ***WARNING: ELEMENT 3 HAS AN ASPECT RATIO EXCEEDING 100 TO 1.

 ***WARNING: ELEMENT 4 HAS AN ASPECT RATIO EXCEEDING 100 TO 1.

 ***WARNING: ELEMENT 5 HAS AN ASPECT RATIO EXCEEDING 100 TO 1.

 ***WARNING: ELEMENT 6 HAS AN ASPECT RATIO EXCEEDING 100 TO 1.

 ***WARNING: ELEMENT 7 HAS AN ASPECT RATIO EXCEEDING 100 TO 1.

 ***WARNING: ELEMENT 8 HAS AN ASPECT RATIO EXCEEDING 100 TO 1.

 ***WARNING: ELEMENT 9 HAS AN ASPECT RATIO EXCEEDING 100 TO 1.

 ***WARNING: ELEMENT 10 HAS AN ASPECT RATIO EXCEEDING 100 TO 1.

 ***WARNING: ELEMENT 11 HAS AN ASPECT RATIO EXCEEDING 100 TO 1.

 ***WARNING: ELEMENT 12 HAS AN ASPECT RATIO EXCEEDING 100 TO 1.

 ***WARNING: ELEMENT 13 HAS AN ASPECT RATIO EXCEEDING 100 TO 1.

 ***WARNING: ELEMENT 14 HAS AN ASPECT RATIO EXCEEDING 100 TO 1.

 ***WARNING: ELEMENT 15 HAS AN ASPECT RATIO EXCEEDING 100 TO 1.

 ***WARNING: ELEMENT 16 HAS AN ASPECT RATIO EXCEEDING 100 TO 1.

 ***WARNING: ELEMENT 17 HAS AN ASPECT RATIO EXCEEDING 100 TO 1.

 ***WARNING: ELEMENT 18 HAS AN ASPECT RATIO EXCEEDING 100 TO 1.

 ***WARNING: ELEMENT 19 HAS AN ASPECT RATIO EXCEEDING 100 TO 1.

 ***WARNING: ELEMENT 20 HAS AN ASPECT RATIO EXCEEDING 100 TO 1.

 ***WARNING: ELEMENT 631 IS DISTORTED: ANGLE BETWEEN ISOPARAMETRIC LINES IS 
             LESS THAN 45 OR GREATER THAN 135 DEG.  THE MIN/MAX ANGLE IS 41.616 
             DEG.

 ***WARNING: ELEMENT 632 IS DISTORTED: ANGLE BETWEEN ISOPARAMETRIC LINES IS 
             LESS THAN 45 OR GREATER THAN 135 DEG.  THE MIN/MAX ANGLE IS 37.156 
             DEG.

 ***WARNING: ELEMENT 633 IS DISTORTED: ANGLE BETWEEN ISOPARAMETRIC LINES IS 
             LESS THAN 45 OR GREATER THAN 135 DEG.  THE MIN/MAX ANGLE IS 32.692 
             DEG.

 ***WARNING: ELEMENT 634 IS DISTORTED: ANGLE BETWEEN ISOPARAMETRIC LINES IS 
             LESS THAN 45 OR GREATER THAN 135 DEG.  THE MIN/MAX ANGLE IS 28.224 
             DEG.

 ***WARNING: ELEMENT 635 IS DISTORTED: ANGLE BETWEEN ISOPARAMETRIC LINES IS 
             LESS THAN 45 OR GREATER THAN 135 DEG.  THE MIN/MAX ANGLE IS 23.752 
             DEG.

 ***WARNING: ELEMENT 636 IS DISTORTED: ANGLE BETWEEN ISOPARAMETRIC LINES IS 
             LESS THAN 45 OR GREATER THAN 135 DEG.  THE MIN/MAX ANGLE IS 19.275 
             DEG.

 ***WARNING: ELEMENT 637 IS DISTORTED: ANGLE BETWEEN ISOPARAMETRIC LINES IS 
             LESS THAN 45 OR GREATER THAN 135 DEG.  THE MIN/MAX ANGLE IS 14.794 
             DEG.

 ***WARNING: ELEMENT 638 IS DISTORTED: ANGLE BETWEEN ISOPARAMETRIC LINES IS 
             LESS THAN 45 OR GREATER THAN 135 DEG.  THE MIN/MAX ANGLE IS 10.308 
             DEG.

 ***WARNING: ELEMENT 639 IS DISTORTED: ANGLE BETWEEN ISOPARAMETRIC LINES IS 
             LESS THAN 45 OR GREATER THAN 135 DEG.  THE MIN/MAX ANGLE IS 5.8166 
             DEG.

 ***WARNING: ELEMENT 640 IS DISTORTED: ANGLE BETWEEN ISOPARAMETRIC LINES IS 
             LESS THAN 45 OR GREATER THAN 135 DEG.  THE MIN/MAX ANGLE IS 1.3206 
             DEG.

 ***WARNING: ELEMENT 652 IS DISTORTED: ANGLE BETWEEN ISOPARAMETRIC LINES IS 
             LESS THAN 45 OR GREATER THAN 135 DEG.  THE MIN/MAX ANGLE IS 42.718 
             DEG.

 ***WARNING: ELEMENT 653 IS DISTORTED: ANGLE BETWEEN ISOPARAMETRIC LINES IS 
             LESS THAN 45 OR GREATER THAN 135 DEG.  THE MIN/MAX ANGLE IS 38.614 
             DEG.

 ***WARNING: ELEMENT 654 IS DISTORTED: ANGLE BETWEEN ISOPARAMETRIC LINES IS 
             LESS THAN 45 OR GREATER THAN 135 DEG.  THE MIN/MAX ANGLE IS 34.479 
             DEG.

 ***WARNING: ELEMENT 655 IS DISTORTED: ANGLE BETWEEN ISOPARAMETRIC LINES IS 
             LESS THAN 45 OR GREATER THAN 135 DEG.  THE MIN/MAX ANGLE IS 30.310 
             DEG.

 ***WARNING: ELEMENT 656 IS DISTORTED: ANGLE BETWEEN ISOPARAMETRIC LINES IS 
             LESS THAN 45 OR GREATER THAN 135 DEG.  THE MIN/MAX ANGLE IS 26.105 
             DEG.

 ***WARNING: ELEMENT 657 IS DISTORTED: ANGLE BETWEEN ISOPARAMETRIC LINES IS 
             LESS THAN 45 OR GREATER THAN 135 DEG.  THE MIN/MAX ANGLE IS 21.861 
             DEG.

 ***WARNING: ELEMENT 658 IS DISTORTED: ANGLE BETWEEN ISOPARAMETRIC LINES IS 
             LESS THAN 45 OR GREATER THAN 135 DEG.  THE MIN/MAX ANGLE IS 17.576 
             DEG.

 ***WARNING: ELEMENT 659 IS DISTORTED: ANGLE BETWEEN ISOPARAMETRIC LINES IS 
             LESS THAN 45 OR GREATER THAN 135 DEG.  THE MIN/MAX ANGLE IS 13.247 
             DEG.

 ***WARNING: ELEMENT 660 IS DISTORTED: ANGLE BETWEEN ISOPARAMETRIC LINES IS 
             LESS THAN 45 OR GREATER THAN 135 DEG.  THE MIN/MAX ANGLE IS 8.8717 
             DEG.

 ***WARNING: ELEMENT 673 IS DISTORTED: ANGLE BETWEEN ISOPARAMETRIC LINES IS 
             LESS THAN 45 OR GREATER THAN 135 DEG.  THE MIN/MAX ANGLE IS 44.219 
             DEG.

 ***WARNING: ELEMENT 674 IS DISTORTED: ANGLE BETWEEN ISOPARAMETRIC LINES IS 
             LESS THAN 45 OR GREATER THAN 135 DEG.  THE MIN/MAX ANGLE IS 40.481 
             DEG.

 ***WARNING: ELEMENT 675 IS DISTORTED: ANGLE BETWEEN ISOPARAMETRIC LINES IS 
             LESS THAN 45 OR GREATER THAN 135 DEG.  THE MIN/MAX ANGLE IS 36.696 
             DEG.

 ***WARNING: ELEMENT 676 IS DISTORTED: ANGLE BETWEEN ISOPARAMETRIC LINES IS 
             LESS THAN 45 OR GREATER THAN 135 DEG.  THE MIN/MAX ANGLE IS 32.862 
             DEG.

 ***WARNING: ELEMENT 677 IS DISTORTED: ANGLE BETWEEN ISOPARAMETRIC LINES IS 
             LESS THAN 45 OR GREATER THAN 135 DEG.  THE MIN/MAX ANGLE IS 28.971 
             DEG.

 ***WARNING: ELEMENT 678 IS DISTORTED: ANGLE BETWEEN ISOPARAMETRIC LINES IS 
             LESS THAN 45 OR GREATER THAN 135 DEG.  THE MIN/MAX ANGLE IS 25.020 
             DEG.

 ***WARNING: ELEMENT 679 IS DISTORTED: ANGLE BETWEEN ISOPARAMETRIC LINES IS 
             LESS THAN 45 OR GREATER THAN 135 DEG.  THE MIN/MAX ANGLE IS 21.001 
             DEG.

 ***WARNING: ELEMENT 680 IS DISTORTED: ANGLE BETWEEN ISOPARAMETRIC LINES IS 
             LESS THAN 45 OR GREATER THAN 135 DEG.  THE MIN/MAX ANGLE IS 16.909 
             DEG.

 ***WARNING: ELEMENT 695 IS DISTORTED: ANGLE BETWEEN ISOPARAMETRIC LINES IS 
             LESS THAN 45 OR GREATER THAN 135 DEG.  THE MIN/MAX ANGLE IS 42.769 
             DEG.

 ***WARNING: ELEMENT 696 IS DISTORTED: ANGLE BETWEEN ISOPARAMETRIC LINES IS 
             LESS THAN 45 OR GREATER THAN 135 DEG.  THE MIN/MAX ANGLE IS 39.366 
             DEG.

 ***WARNING: ELEMENT 697 IS DISTORTED: ANGLE BETWEEN ISOPARAMETRIC LINES IS 
             LESS THAN 45 OR GREATER THAN 135 DEG.  THE MIN/MAX ANGLE IS 35.910 
             DEG.

 ***WARNING: ELEMENT 698 IS DISTORTED: ANGLE BETWEEN ISOPARAMETRIC LINES IS 
             LESS THAN 45 OR GREATER THAN 135 DEG.  THE MIN/MAX ANGLE IS 32.393 
             DEG.

 ***WARNING: ELEMENT 699 IS DISTORTED: ANGLE BETWEEN ISOPARAMETRIC LINES IS 
             LESS THAN 45 OR GREATER THAN 135 DEG.  THE MIN/MAX ANGLE IS 28.808 
             DEG.

 ***WARNING: ELEMENT 700 IS DISTORTED: ANGLE BETWEEN ISOPARAMETRIC LINES IS 
             LESS THAN 45 OR GREATER THAN 135 DEG.  THE MIN/MAX ANGLE IS 25.147 
             DEG.

 ***WARNING: ELEMENT 717 IS DISTORTED: ANGLE BETWEEN ISOPARAMETRIC LINES IS 
             LESS THAN 45 OR GREATER THAN 135 DEG.  THE MIN/MAX ANGLE IS 42.493 
             DEG.

 ***WARNING: ELEMENT 718 IS DISTORTED: ANGLE BETWEEN ISOPARAMETRIC LINES IS 
             LESS THAN 45 OR GREATER THAN 135 DEG.  THE MIN/MAX ANGLE IS 39.465 
             DEG.

 ***WARNING: ELEMENT 719 IS DISTORTED: ANGLE BETWEEN ISOPARAMETRIC LINES IS 
             LESS THAN 45 OR GREATER THAN 135 DEG.  THE MIN/MAX ANGLE IS 36.387 
             DEG.

 ***WARNING: ELEMENT 720 IS DISTORTED: ANGLE BETWEEN ISOPARAMETRIC LINES IS 
             LESS THAN 45 OR GREATER THAN 135 DEG.  THE MIN/MAX ANGLE IS 33.252 
             DEG.

 ***WARNING: ELEMENT 739 IS DISTORTED: ANGLE BETWEEN ISOPARAMETRIC LINES IS 
             LESS THAN 45 OR GREATER THAN 135 DEG.  THE MIN/MAX ANGLE IS 43.501 
             DEG.

 ***WARNING: ELEMENT 740 IS DISTORTED: ANGLE BETWEEN ISOPARAMETRIC LINES IS 
             LESS THAN 45 OR GREATER THAN 135 DEG.  THE MIN/MAX ANGLE IS 40.924 
             DEG.

 ***WARNING: 39 elements are distorted. Either the interior angles are out of 
             the suggested limits or the triangular or tetrahedral quality 
             measure is bad. The elements have been identified in element set 
             WarnElemDistorted.

 ***WARNING: The aspect ratio for 20 elements exceeds 100 to 1. The elements 
             have been identified in element set WarnElemAspectRatio.
1

   ABAQUS VERSION 6.4-1                                 DATE 23-Apr-2008       TIME 15:21:57        PAGE    2
   For use at None under academic license from ABAQUS, Inc.                                                                        

     CRACK TIP: 8-noded elements                                                     



                            P R O B L E M   S I Z E


          NUMBER OF ELEMENTS IS                                  1220
          NUMBER OF NODES IS                                     3823
          NUMBER OF NODES DEFINED BY THE USER                    3823
          TOTAL NUMBER OF VARIABLES IN THE MODEL                 7646
          (DEGREES OF FREEDOM PLUS ANY LAGRANGE MULTIPLIER VARIABLES)



                              END OF USER INPUT PROCESSING



     JOB TIME SUMMARY
       USER TIME (SEC)      =  0.50000    
       SYSTEM TIME (SEC)    =   0.0000    
       TOTAL CPU TIME (SEC) =  0.50000    
       WALLCLOCK TIME (SEC) =          2
1

   ABAQUS VERSION 6.4-1                                     DATE 23-Apr-2008   TIME 15:21:58        PAGE    1
   For use at None under academic license from ABAQUS, Inc.                                                                        

     CRACK TIP: 8-noded elements                                                               STEP    1  INCREMENT    1
                                                                                          TIME COMPLETED IN THIS STEP   0.00    


                        S T E P       1     S T A T I C   A N A L Y S I S


                                                                                          

     AUTOMATIC TIME CONTROL WITH -
          A SUGGESTED INITIAL TIME INCREMENT OF                 1.00    
          AND A TOTAL TIME PERIOD OF                            1.00    
          THE MINIMUM TIME INCREMENT ALLOWED IS                1.000E-06
          THE MAXIMUM TIME INCREMENT ALLOWED IS                 1.00    

     LINEAR EQUATION SOLVER TYPE         DIRECT SPARSE
  
  
  
                   M E M O R Y   A N D   D I S K   E S T I M A T E
  
  
           SUMMARY FOR CURRENT NODE ORDERING
          (NOTE THAT IF NODE ORDERING CHANGES THE SIZE ESTIMATES FOR THE STEPS WILL CHANGE)
  
  
           STEP   MAXIMUM DOF     FLOATING PT    MINIMUM MEMORY      MEMORY TO      REQUIRED DISKSPACE
                  WAVEFRONT       OPERATIONS       REQUIRED        MINIMIZE I/O
                                PER ITERATION     (MBYTES)           (MBYTES)          (MBYTES)
  
             1         256        5.10E+007         15.30              18.88              5.57
          ----    ---------      ------------    -------------     -------------      -------------
           MAX         256        5.10E+007         15.30              18.88              5.57
  
  
          THE TABLE ABOVE PROVIDES A STEP BY STEP SUMMARY OF SOME BASIC SIZING INFORMATION
          FOR THE PROBLEM. SOME FURTHER DESCRIPTION OF THE PARAMETERS GIVEN FOLLOWS:
  
          (1) MAXIMUM DOF WAVEFRONT - SIZE OF THE BIGGEST FRONT IN THE EQUATION SOLVER.
              PROVIDES A BASIC SIZING OF THE MOST MEMORY INTENSIVE SEGMENT OF SOLVER.
          (2) FLOATING POINT OPERATIONS PER ITERATION - MEASURE OF THE NUMBER OF FLOATING
              POINT OPERATIONS REQUIRED FOR A SINGLE SOLVER PASS. ON A GIVEN PLATFORM
              THE TIME REQUIRED FOR A SOLVER PASS WILL BE ROUGHLY A LINEAR FUNCTION
              OF THIS VALUE.
              NOTE - EXCEPT FOR THE FIRST STEP, THE VALUE IN THIS TABLE DOES NOT INCLUDE
                     ADDITIONAL FLOATING POINT OPERATIONS THAT ARE REQUIRED IN MULTIPLE LOAD
                     CASE STEPS WHEN CONSTRAINTS CHANGE FROM LOAD CASE TO LOAD CASE.  THIS
                     SITUATION CAUSES A REORDERING TO BE PERFORMED, AT WHICH TIME AN UPPER
                     BOUND ON THE NUMBER OF ADDITIONAL FLOATING POINT OPERATIONS WILL BE
                     CALCULATED AND INCLUDED UNDER THE ESTIMATE SUMMARIES FOR THE RELEVANT
                     STEPS (SEE NOTE BELOW ON REORDERING).
          (3) MINIMUM MEMORY REQUIRED - MINIMUM POSSIBLE MEMORY VALUE FOR standard_memory
              THAT ENABLES ABAQUS TO SOLVE THE PROBLEM. USE OF MEMORY WILL BE MINIMIZED BY
              WRITING AS MUCH INFORMATION AS POSSIBLE TO DISK WHICH WILL INCREASE I/O TIME.
          (4) MEMORY TO MINIMIZE I/O - VALUE OF standard_memory THAT ALLOWS ABAQUS TO KEEP
              ALL SIGNIFICANT SCRATCH FILES IN MEMORY. THIS WILL MINIMIZE I/O TIME FOR THE USER
              WITH ACCESS TO A LARGE AMOUNT OF MEMORY.
          (5) REQUIRED DISKSPACE - AMOUNT OF DISK REQUIRED FOR SCRATCH FILES. THESE WILL BE
              DELETED AT THE END OF THE ANALYSIS.
  
  
           NOTE - WHENEVER POSSIBLE THE USER SHOULD SET standard_memory TO BE LESS THAN THE
          PHYSICAL MEMORY ON THE MACHINE. UNLESS NECESSARY USERS SHOULD NOT MAKE USE
          OF VIRTUAL MEMORY EVEN IN AN ATTEMPT TO KEEP SCRATCH FILES IN MEMORY.
  
           NOTE - IF A REORDERING IS PERFORMED (THIS WILL GENERALLY BE DONE ONLY FOR 3D-3D
          LARGE SLIDING PROBLEMS), THE SIZE ESTIMATES DONE AT THIS TIME WILL NO LONGER BE VALID.
          THE ESTIMATES WILL BE REDONE IN THE EVENT OF A REORDERING AND A NEW SUMMARY WILL BE
          BE PRINTED FOR THE REMAINING STEPS.
  
  
  
           S I Z E   E S T I M A T E S   F O R   C U R R E N T   S T E P
  
          NUMBER OF EQUATIONS                        7646
          MAX DOF WAVEFRONT                          256
          FLOATING POINT OPS PER SOLVER ITERATION   5.10E+007
          MEMORY USED FOR STEP                      15.52 MBYTES
  
  
           ESTIMATED FILE SIZES
  
           FILE           KWORDS           MBYTES
  
          .fct           524.657            4.003
          .nck            19.520            0.149
          .opr           185.440            1.415
          -------        -------          -------
           TOTAL         729.617            5.567
  


                                INCREMENT     1 SUMMARY


 TIME INCREMENT COMPLETED   1.00    ,  FRACTION OF STEP COMPLETED   1.00    
 STEP TIME COMPLETED        1.00    ,  TOTAL TIME COMPLETED         1.00    



                                                  E L E M E N T   O U T P U T





   THE FOLLOWING TABLE IS PRINTED FOR ALL ELEMENTS WITH TYPE CPS8 AT THE INTEGRATION POINTS

    ELEMENT  PT FOOT-       S11         S22         S12         E11         E22         E12     
                NOTE 

          1   1         1.9412E+06  2.0311E+06  2.3975E+04  1.9027E-05  2.0696E-05  8.9048E-07  
          1   2         4.5082E+05  4.7712E+05   2682.      4.3955E-06  4.8839E-06  9.9626E-08  
          1   3         2.5682E+05  2.6639E+05   1325.      2.5272E-06  2.7049E-06  4.9221E-08  
          1   4         1.9294E+06  2.0624E+06  7.3906E+04  1.8724E-05  2.1194E-05  2.7451E-06  
          1   5         4.4912E+05  4.8229E+05  1.7217E+04  4.3490E-06  4.9651E-06  6.3950E-07  
          1   6         2.5592E+05  2.6911E+05   9740.      2.5027E-06  2.7477E-06  3.6177E-07  
          1   7         1.9121E+06  2.0488E+06  1.2374E+05  1.8535E-05  2.1074E-05  4.5960E-06  
          1   8         4.4302E+05  4.8352E+05  3.1478E+04  4.2566E-06  5.0088E-06  1.1692E-06  
          1   9         2.5234E+05  2.7017E+05  1.7983E+04  2.4470E-06  2.7782E-06  6.6794E-07  
          2   1         1.8921E+06  2.0724E+06  1.6697E+05  1.8148E-05  2.1497E-05  6.2018E-06  
          2   2         4.3893E+05  4.8437E+05  3.6425E+04  4.1945E-06  5.0385E-06  1.3529E-06  
          2   3         2.5035E+05  2.7114E+05  2.0294E+04  2.4144E-06  2.8005E-06  7.5378E-07  
          2   4         1.8513E+06  2.1202E+06  2.0807E+05  1.7361E-05  2.2355E-05  7.7284E-06  
          2   5         4.2982E+05  4.9547E+05  4.8333E+04  4.0169E-06  5.2361E-06  1.7952E-06  
          2   6         2.4522E+05  2.7737E+05  2.7180E+04  2.3144E-06  2.9114E-06  1.0095E-06  
          2   7         1.8077E+06  2.1224E+06  2.4941E+05  1.6729E-05  2.2572E-05  9.2638E-06  
          2   8         4.1670E+05  5.0244E+05  5.9483E+04  3.7995E-06  5.3918E-06  2.2094E-06  
          2   9         2.3760E+05  2.8181E+05  3.3585E+04  2.1865E-06  3.0076E-06  1.2475E-06  
          3   1         1.7715E+06  2.1660E+06  2.7927E+05  1.6025E-05  2.3350E-05  1.0373E-05  
          3   2         4.0877E+05  5.0387E+05  6.3212E+04  3.6801E-06  5.4463E-06  2.3479E-06  
          3   3         2.3388E+05  2.8341E+05  3.4952E+04  2.1265E-06  3.0464E-06  1.2982E-06  
          3   4         1.7053E+06  2.2257E+06  3.0324E+05  1.4823E-05  2.4488E-05  1.1263E-05  
          3   5         3.9376E+05  5.1933E+05  6.9978E+04  3.3994E-06  5.7315E-06  2.5992E-06  
          3   6         2.2543E+05  2.9222E+05  3.8844E+04  1.9680E-06  3.2085E-06  1.4428E-06  
          3   7         1.6410E+06  2.2388E+06  3.2925E+05  1.3848E-05  2.4950E-05  1.2229E-05  
          3   8         3.7545E+05  5.3032E+05  7.5688E+04  3.0907E-06  5.9670E-06  2.8113E-06  
          3   9         2.1485E+05  2.9904E+05  4.2042E+04  1.7877E-06  3.3513E-06  1.5615E-06  
          4   1         1.5957E+06  2.2955E+06  3.3929E+05  1.2958E-05  2.5954E-05  1.2602E-05  
          4   2         3.6414E+05  5.3182E+05  7.7498E+04  2.9228E-06  6.0369E-06  2.8785E-06  
          4   3         2.0986E+05  3.0068E+05  4.2059E+04  1.7094E-06  3.3960E-06  1.5622E-06  
          4   4         1.5103E+06  2.3599E+06  3.3957E+05  1.1463E-05  2.7239E-05  1.2613E-05  
          4   5         3.4563E+05  5.4924E+05  7.7385E+04  2.5837E-06  6.3649E-06  2.8743E-06  
          4   6         1.9952E+05  3.1066E+05  4.1962E+04  1.5188E-06  3.5829E-06  1.5586E-06  
          4   7         1.4327E+06  2.3768E+06  3.4587E+05  1.0281E-05  2.7814E-05  1.2847E-05  
          4   8         3.2475E+05  5.6177E+05  7.6199E+04  2.2317E-06  6.6335E-06  2.8302E-06  
          4   9         1.8751E+05  3.1839E+05  4.1097E+04  1.3142E-06  3.7448E-06  1.5265E-06  
          5   1         1.3874E+06  2.4378E+06  3.3290E+05  9.3715E-06  2.8881E-05  1.2365E-05  
          5   2         3.1076E+05  5.6260E+05  7.5565E+04  2.0282E-06  6.7053E-06  2.8067E-06  
          5   3         1.8181E+05  3.1933E+05  3.9641E+04  1.2287E-06  3.7827E-06  1.4724E-06  
          5   4         1.2913E+06  2.4973E+06  3.0566E+05  7.7448E-06  3.0142E-05  1.1353E-05  
          5   5         2.9165E+05  5.7905E+05  6.7898E+04  1.6848E-06  7.0222E-06  2.5219E-06  
          5   6         1.7129E+05  3.2879E+05  3.5190E+04  1.0379E-06  3.9629E-06  1.3070E-06  
          5   7         1.2087E+06  2.5101E+06  2.9080E+05  6.5099E-06  3.0679E-05  1.0801E-05  
          5   8         2.7120E+05  5.9028E+05  5.9462E+04  1.3445E-06  7.2703E-06  2.2086E-06  
          5   9         1.5963E+05  3.3575E+05  3.0061E+04  8.4150E-07  4.1123E-06  1.1165E-06  
          6   1         1.1731E+06  2.5661E+06  2.5542E+05  5.7607E-06  3.1631E-05  9.4872E-06  
          6   2         2.5536E+05  5.8952E+05  5.6111E+04  1.1215E-06  7.3274E-06  2.0841E-06  
          6   3         1.5371E+05  3.3528E+05  2.7301E+04  7.5890E-07  4.1309E-06  1.0140E-06  
          6   4         1.0761E+06  2.6102E+06  2.0022E+05  4.1857E-06  3.2677E-05  7.4369E-06  
          6   5         2.3866E+05  6.0206E+05  4.1392E+04  8.2918E-07  7.5780E-06  1.5374E-06  
          6   6         1.4477E+05  3.4250E+05  1.8824E+04  6.0022E-07  4.2725E-06  6.9919E-07  
          6   7         9.9655E+05  2.6107E+06  1.6591E+05  3.0478E-06  3.3024E-05  6.1623E-06  
          6   8         2.2156E+05  6.0921E+05  2.6526E+04  5.5422E-07  7.7535E-06  9.8524E-07  
          6   9         1.3517E+05  3.4707E+05   9925.      4.4363E-07  4.3788E-06  3.6863E-07  
          7   1         9.7942E+05  2.6532E+06  1.1243E+05  2.6206E-06  3.3706E-05  4.1760E-06  
          7   2         2.0480E+05  6.0589E+05  2.0502E+04  3.2909E-07  7.7779E-06  7.6151E-07  
          7   3         1.2935E+05  3.4460E+05   6264.      3.7098E-07  4.3686E-06  2.3267E-07  
          7   4         8.9095E+05  2.6716E+06  3.2528E+04  1.2780E-06  3.4347E-05  1.2082E-06  
          7   5         1.9312E+05  6.1196E+05   353.5      1.3617E-07  7.9146E-06  1.3130E-08  
          7   6         1.2350E+05  3.4815E+05  -5252.      2.7222E-07  4.4443E-06 -1.9508E-07  
          7   7         8.2128E+05  2.6527E+06 -1.6645E+04  3.6376E-07  3.4376E-05 -6.1824E-07  
          7   8         1.8176E+05  6.1279E+05 -1.9068E+04 -2.9596E-08  7.9751E-06 -7.0824E-07  
          7   9         1.1739E+05  3.4900E+05 -1.6807E+04  1.8126E-07  4.4826E-06 -6.2424E-07  
          8   1         8.2914E+05  2.6757E+06 -8.0857E+04  3.7741E-07  3.4671E-05 -3.0033E-06  
          8   2         1.6499E+05  6.0597E+05 -2.7371E+04 -2.4007E-07  7.9496E-06 -1.0166E-06  
          8   3         1.1174E+05  3.4422E+05 -2.0834E+04  1.2112E-07  4.4385E-06 -7.7384E-07  
          8   4         7.5742E+05  2.6597E+06 -1.7869E+05 -5.7860E-07  3.4750E-05 -6.6370E-06  
          8   5         1.6015E+05  6.0384E+05 -5.0435E+04 -3.0008E-07  7.9399E-06 -1.8733E-06  
          8   6         1.1001E+05  3.4313E+05 -3.3896E+04  1.0108E-07  4.4303E-06 -1.2590E-06  
          8   7         7.0200E+05  2.6166E+06 -2.3579E+05 -1.1855E-06  3.4371E-05 -8.7580E-06  
          8   8         1.5603E+05  5.9698E+05 -7.1759E+04 -3.2954E-07  7.8596E-06 -2.6653E-06  
          8   9         1.0825E+05  3.3947E+05 -4.6533E+04  9.1614E-08  4.3856E-06 -1.7284E-06  
          9   1         7.3798E+05  2.6171E+06 -3.0143E+05 -6.7338E-07  3.4224E-05 -1.1196E-05  
          9   2         1.3996E+05  5.8594E+05 -8.1617E+04 -5.1180E-07  7.7707E-06 -3.0315E-06  
          9   3         1.0262E+05  3.3231E+05 -5.0394E+04  4.1740E-08  4.3075E-06 -1.8718E-06  
          9   4         6.8861E+05  2.5610E+06 -4.0756E+05 -1.1385E-06  3.3635E-05 -1.5138E-05  
          9   5         1.4271E+05  5.7498E+05 -1.0456E+05 -4.2550E-07  7.6023E-06 -3.8837E-06  
          9   6         1.0538E+05  3.2628E+05 -6.3223E+04  1.0716E-07  4.2095E-06 -2.3483E-06  
          9   7         6.4873E+05  2.4916E+06 -4.6431E+05 -1.4105E-06  3.2814E-05 -1.7246E-05  
          9   8         1.4617E+05  5.6020E+05 -1.2476E+05 -3.1276E-07  7.3764E-06 -4.6340E-06  
          9   9         1.0818E+05  3.1801E+05 -7.5154E+04  1.8251E-07  4.0794E-06 -2.7914E-06  
         10   1         7.1214E+05  2.4702E+06 -5.2150E+05 -4.1327E-07  3.2237E-05 -1.9370E-05  
         10   2         1.3125E+05  5.4454E+05 -1.3520E+05 -4.5883E-07  7.2167E-06 -5.0218E-06  
         10   3         1.0216E+05  3.0864E+05 -7.8431E+04  1.3673E-07  3.9713E-06 -2.9131E-06  
         10   4         6.8711E+05  2.3723E+06 -6.2453E+05 -3.5115E-07  3.0945E-05 -2.3197E-05  
         10   5         1.4113E+05  5.2534E+05 -1.5492E+05 -2.3536E-07  6.9000E-06 -5.7543E-06  
         10   6         1.0910E+05  2.9808E+05 -8.9237E+04  2.8108E-07  3.7907E-06 -3.3145E-06  
         10   7         6.6068E+05  2.2779E+06 -6.7246E+05 -3.2418E-07  2.9710E-05 -2.4977E-05  
         10   8         1.5129E+05  5.0362E+05 -1.7108E+05  2.9892E-09  6.5461E-06 -6.3543E-06  
         10   9         1.1593E+05  2.8578E+05 -9.8741E+04  4.3132E-07  3.5858E-06 -3.6675E-06  
         11   1         7.4694E+05  2.2391E+06 -7.1218E+05  1.0745E-06  2.8785E-05 -2.6452E-05  
         11   2         1.3759E+05  4.8340E+05 -1.8102E+05 -1.0608E-07  6.3160E-06 -6.7234E-06  
         11   3         1.0905E+05  2.7453E+05 -1.0121E+05  3.8124E-07  3.4546E-06 -3.7593E-06  
         11   4         7.4414E+05  2.1019E+06 -8.0043E+05  1.6225E-06  2.6838E-05 -2.9730E-05  
         11   5         1.5298E+05  4.5771E+05 -1.9482E+05  2.2388E-07  5.8830E-06 -7.2363E-06  
         11   6         1.1914E+05  2.6052E+05 -1.0847E+05  5.8554E-07  3.2111E-06 -4.0290E-06  
         11   7         7.2572E+05  1.9872E+06 -8.3227E+05  1.8509E-06  2.5278E-05 -3.0913E-05  
         11   8         1.6789E+05  4.3106E+05 -2.0456E+05  5.5100E-07  5.4385E-06 -7.5980E-06  
         11   9         1.2885E+05  2.4542E+05 -1.1416E+05  7.8887E-07  2.9538E-06 -4.2403E-06  
         12   1         8.2691E+05  1.9382E+06 -8.4769E+05  3.5065E-06  2.4144E-05 -3.1486E-05  
         12   2         1.5511E+05  4.0682E+05 -2.1299E+05  4.7233E-07  5.1469E-06 -7.9112E-06  
         12   3         1.2061E+05  2.3266E+05 -1.1582E+05  7.2594E-07  2.8068E-06 -4.3019E-06  
         12   4         8.4019E+05  1.7689E+06 -9.1084E+05  4.4215E-06  2.1670E-05 -3.3831E-05  
         12   5         1.7345E+05  3.7730E+05 -2.1903E+05  8.6089E-07  4.6467E-06 -8.1353E-06  
         12   6         1.3234E+05  2.1678E+05 -1.1852E+05  9.6150E-07  2.5297E-06 -4.4023E-06  
         12   7         8.2171E+05  1.6414E+06 -9.2176E+05  4.7042E-06  1.9927E-05 -3.4237E-05  
         12   8         1.9032E+05  3.4854E+05 -2.2093E+05  1.2251E-06  4.1634E-06 -8.2059E-06  
         12   9         1.4329E+05  2.0054E+05 -1.1957E+05  1.1875E-06  2.2507E-06 -4.4413E-06  
         13   1         9.2743E+05  1.5916E+06 -9.0931E+05  6.4280E-06  1.8762E-05 -3.3774E-05  
         13   2         1.7787E+05  3.2121E+05 -2.2710E+05  1.1643E-06  3.8265E-06 -8.4351E-06  
         13   3         1.3332E+05  1.8662E+05 -1.2060E+05  1.1047E-06  2.0946E-06 -4.4794E-06  
         13   4         9.4725E+05  1.4013E+06 -9.3999E+05  7.5267E-06  1.5958E-05 -3.4914E-05  
         13   5         1.9606E+05  2.9108E+05 -2.2463E+05  1.5534E-06  3.3180E-06 -8.3433E-06  
         13   6         1.4484E+05  1.7072E+05 -1.1841E+05  1.3375E-06  1.8181E-06 -4.3980E-06  
         13   7         9.1921E+05  1.2701E+06 -9.2866E+05  7.6882E-06  1.4205E-05 -3.4493E-05  
         13   8         2.1172E+05  2.6332E+05 -2.1846E+05  1.8960E-06  2.8544E-06 -8.1141E-06  
         13   9         1.5518E+05  1.5518E+05 -1.1469E+05  1.5517E-06  1.5518E-06 -4.2598E-06  
         14   1         1.0178E+06  1.2295E+06 -8.8877E+05  9.2705E-06  1.3203E-05 -3.3012E-05  
         14   2         1.9890E+05  2.3415E+05 -2.2197E+05  1.8379E-06  2.4926E-06 -8.2448E-06  
         14   3         1.4322E+05  1.4034E+05 -1.1538E+05  1.4446E-06  1.3911E-06 -4.2857E-06  
         14   4         1.0326E+06  1.0318E+06 -8.8393E+05  1.0330E-05  1.0314E-05 -3.2832E-05  
         14   5         2.1375E+05  2.0662E+05 -2.1153E+05  2.1680E-06  2.0357E-06 -7.8568E-06  
         14   6         1.5269E+05  1.2627E+05 -1.0869E+05  1.6402E-06  1.1494E-06 -4.0370E-06  
         14   7         9.8576E+05  9.0668E+05 -8.5308E+05  1.0197E-05  8.7279E-06 -3.1686E-05  
         14   8         2.2511E+05  1.8285E+05 -1.9830E+05  2.4322E-06  1.6474E-06 -7.3656E-06  
         14   9         1.6061E+05  1.1317E+05 -1.0080E+05  1.8094E-06  9.2836E-07 -3.7441E-06  
         15   1         1.0657E+06  8.8450E+05 -7.9058E+05  1.1434E-05  8.0684E-06 -2.9365E-05  
         15   2         2.1134E+05  1.5317E+05 -1.9914E+05  2.3627E-06  1.2824E-06 -7.3967E-06  
         15   3         1.4657E+05  9.7587E+04 -1.0153E+05  1.6756E-06  7.6595E-07 -3.7711E-06  
         15   4         1.0640E+06  6.9378E+05 -7.5223E+05  1.2226E-05  5.3513E-06 -2.7940E-05  
         15   5         2.2002E+05  1.3099E+05 -1.8245E+05  2.5817E-06  9.2835E-07 -6.7768E-06  
         15   6         1.5236E+05  8.6833E+04 -9.1406E+04  1.8044E-06  5.8750E-07 -3.3951E-06  
         15   7         9.9126E+05  5.8317E+05 -7.0853E+05  1.1662E-05  4.0828E-06 -2.6317E-05  
         15   8         2.2454E+05  1.1351E+05 -1.6429E+05  2.7213E-06  6.5926E-07 -6.1023E-06  
         15   9         1.5636E+05  7.7509E+04 -8.0592E+04  1.9016E-06  4.3714E-07 -2.9934E-06  
         16   1         1.0428E+06  5.8575E+05 -6.3258E+05  1.2387E-05  3.8988E-06 -2.3496E-05  
         16   2         2.0961E+05  8.4660E+04 -1.6265E+05  2.6316E-06  3.1110E-07 -6.0415E-06  
         16   3         1.4018E+05  6.1339E+04 -8.1765E+04  1.7397E-06  2.7548E-07 -3.0370E-06  
         16   4         1.0151E+06  4.1553E+05 -5.6782E+05  1.2721E-05  1.5856E-06 -2.1090E-05  
         16   5         2.1004E+05  6.9608E+04 -1.4238E+05  2.7023E-06  9.4203E-08 -5.2883E-06  
         16   6         1.4112E+05  5.4813E+04 -6.9799E+04  1.7811E-06  1.7823E-07 -2.5925E-06  
         16   7         9.1391E+05  3.2516E+05 -5.2093E+05  1.1662E-05  7.2842E-07 -1.9349E-05  
         16   8         2.0609E+05  5.9643E+04 -1.2220E+05  2.6886E-06 -3.1212E-08 -4.5388E-06  
         16   9         1.4022E+05  4.9952E+04 -5.7749E+04  1.7890E-06  1.1266E-07 -2.1450E-06  
         17   1         9.3068E+05  3.5377E+05 -4.4444E+05  1.1779E-05  1.0653E-06 -1.6508E-05  
         17   2         1.9022E+05  3.3004E+04 -1.1822E+05  2.5760E-06 -3.4375E-07 -4.3911E-06  
         17   3         1.2174E+05  3.3422E+04 -5.9976E+04  1.5960E-06 -4.4299E-08 -2.2277E-06  
         17   4         8.7261E+05  2.1469E+05 -3.6460E+05  1.1546E-05 -6.7278E-07 -1.3542E-05  
         17   5         1.8135E+05  2.5540E+04 -9.7525E+04  2.4812E-06 -4.1234E-07 -3.6224E-06  
         17   6         1.1721E+05  3.1233E+04 -4.8010E+04  1.5406E-06 -5.6143E-08 -1.7832E-06  
         17   7         7.4636E+05  1.4679E+05 -3.2540E+05  1.0033E-05 -1.1017E-06 -1.2086E-05  
         17   8         1.6833E+05  2.2921E+04 -7.8556E+04  2.3064E-06 -3.9396E-07 -2.9178E-06  
         17   9         1.1098E+05  3.0694E+04 -3.6596E+04  1.4538E-06 -3.7134E-08 -1.3593E-06  
         18   1         7.2734E+05  1.9481E+05 -2.6364E+05  9.5557E-06 -3.3422E-07 -9.7922E-06  
         18   2         1.5214E+05   352.2     -7.1948E+04  2.1719E-06 -6.4699E-07 -2.6724E-06  
         18   3         8.9794E+04  1.4121E+04 -4.1153E+04  1.2223E-06 -1.8311E-07 -1.5285E-06  
         18   4         6.4169E+05  9.3462E+04 -1.8267E+05  8.7664E-06 -1.4149E-06 -6.7850E-06  
         18   5         1.3382E+05  -594.9     -5.3928E+04  1.9142E-06 -5.8199E-07 -2.0031E-06  
         18   6         7.9638E+04  1.5463E+04 -3.0959E+04  1.0714E-06 -1.2040E-07 -1.1499E-06  
         18   7         5.0170E+05  4.7028E+04 -1.6079E+05  6.9656E-06 -1.4783E-06 -5.9721E-06  
         18   8         1.1205E+05   2447.     -3.9155E+04  1.5903E-06 -4.4527E-07 -1.4543E-06  
         18   9         6.8110E+04  1.8196E+04 -2.1900E+04  8.9502E-07 -3.1952E-08 -8.1343E-07  
         19   1         4.5304E+05  9.6589E+04 -1.2868E+05  6.0580E-06 -5.6175E-07 -4.7797E-06  
         19   2         9.6192E+04 -1.2747E+04 -2.8788E+04  1.4288E-06 -5.9436E-07 -1.0693E-06  
         19   3         4.3474E+04   1478.     -3.1982E+04  6.1472E-07 -1.6520E-07 -1.1879E-06  
         19   4         3.5301E+05  3.4974E+04 -6.1175E+04  4.8931E-06 -1.0133E-06 -2.2722E-06  
         19   5         6.8687E+04  -9683.     -1.5801E+04  1.0227E-06 -4.3271E-07 -5.8688E-07  
         19   6         2.7637E+04   4692.     -2.4871E+04  3.7470E-07 -5.1411E-08 -9.2379E-07  
         19   7         2.2016E+05   7500.     -6.1989E+04  3.1130E-06 -8.3641E-07 -2.3024E-06  
         19   8         3.8818E+04  -4029.      -7347.      5.7181E-07 -2.2392E-07 -2.7289E-07  
         19   9         1.0882E+04   8819.     -1.9384E+04  1.1766E-07  7.9348E-08 -7.1999E-07  
         20   1         1.5603E+05  2.4023E+04 -7.2957E+04  2.1261E-06 -3.2552E-07 -2.7098E-06  
         20   2         2.3767E+04  -4155.      1.0533E+04  3.5733E-07 -1.6121E-07  3.9121E-07  
         20   3        -1.8876E+04 -1.2724E+04 -4.4858E+04 -2.1512E-07 -1.0087E-07 -1.6661E-06  
         20   4         7.4008E+04  -1856.     -3.1087E+04  1.0652E-06 -3.4369E-07 -1.1547E-06  
         20   5        -1.4236E+04  -240.7      1.7354E+04 -2.0234E-07  5.7572E-08  6.4459E-07  
         20   6        -4.1755E+04  -9682.     -4.1473E+04 -5.5500E-07  4.0633E-08 -1.5404E-06  
         20   7        -1.4114E+04 -1.0382E+04 -4.9794E+04 -1.5713E-07 -8.7823E-08 -1.8495E-06  
         20   8        -5.3314E+04   4330.      1.8494E+04 -7.8019E-07  2.9035E-07  6.8692E-07  
         20   9        -6.5082E+04  -6432.     -4.0155E+04 -9.0218E-07  1.8704E-07 -1.4915E-06  
         21   1          7942.      1.0157E+04   79.00      6.9920E-08  1.1107E-07  2.9341E-09  
         21   2          4978.       5579.       59.22      4.7210E-08  5.8360E-08  2.1997E-09  
         21   3          2949.       4116.       30.78      2.4493E-08  4.6157E-08  1.1432E-09  
         21   4          7907.      1.0243E+04   329.7      6.9065E-08  1.1244E-07  1.2248E-08  
         21   5          4959.       5622.       223.6      4.6755E-08  5.9053E-08  8.3064E-09  
         21   6          2933.       4149.       142.8      2.4117E-08  4.6705E-08  5.3047E-09  
         21   7          7775.      1.0266E+04   574.0      6.7071E-08  1.1334E-07  2.1321E-08  
         21   8          4896.       5639.       385.3      4.5769E-08  5.9579E-08  1.4312E-08  
         21   9          2884.       4161.       252.9      2.3361E-08  4.7087E-08  9.3917E-09  
         22   1          7678.      1.0335E+04   713.4      6.5393E-08  1.1473E-07  2.6496E-08  
         22   2          4843.       5684.       494.5      4.4819E-08  6.0445E-08  1.8367E-08  
         22   3          2847.       4184.       308.3      2.2740E-08  4.7573E-08  1.1450E-08  
         22   4          7486.      1.0519E+04   911.3      6.1863E-08  1.1819E-07  3.3849E-08  
         22   5          4744.       5783.       634.8      4.2993E-08  6.2281E-08  2.3578E-08  
         22   6          2768.       4260.       400.2      2.1294E-08  4.8988E-08  1.4865E-08  
         22   7          7203.      1.0635E+04   1091.      5.7317E-08  1.2107E-07  4.0532E-08  
         22   8          4604.       5855.       767.4      4.0681E-08  6.3912E-08  2.8504E-08  
         22   9          2659.       4312.       486.5      1.9505E-08  5.0207E-08  1.8069E-08  
         23   1          7025.      1.0757E+04   1178.      5.4251E-08  1.2357E-07  4.3753E-08  
         23   2          4505.       5938.       849.9      3.8907E-08  6.5522E-08  3.1567E-08  
         23   3          2591.       4354.       524.4      1.8349E-08  5.1092E-08  1.9479E-08  
         23   4          6709.      1.1008E+04   1273.      4.8661E-08  1.2850E-07  4.7276E-08  
         23   5          4341.       6079.       942.6      3.5957E-08  6.8246E-08  3.5010E-08  
         23   6          2461.       4460.       576.9      1.6047E-08  5.3160E-08  2.1428E-08  
         23   7          6314.      1.1181E+04   1342.      4.2279E-08  1.3267E-07  4.9846E-08  
         23   8          4139.       6190.       1024.      3.2603E-08  7.0692E-08  3.8032E-08  
         23   9          2305.       4540.       621.1      1.3470E-08  5.4979E-08  2.3071E-08  
         24   1          6083.      1.1329E+04   1352.      3.8353E-08  1.3577E-07  5.0202E-08  
         24   2          4007.       6299.       1066.      3.0239E-08  7.2820E-08  3.9582E-08  
         24   3          2213.       4591.       632.8      1.1941E-08  5.6103E-08  2.3505E-08  
         24   4          5694.      1.1596E+04   1311.      3.1653E-08  1.4125E-07  4.8687E-08  
         24   5          3797.       6461.       1094.      2.6553E-08  7.6031E-08  4.0631E-08  
         24   6          2051.       4710.       632.1      9.1220E-09  5.8491E-08  2.3479E-08  
         24   7          5244.      1.1774E+04   1242.      2.4445E-08  1.4573E-07  4.6142E-08  
         24   8          3556.       6588.       1109.      2.2570E-08  7.8873E-08  4.1196E-08  
         24   9          1868.       4800.       622.1      6.1158E-09  6.0560E-08  2.3107E-08  
         25   1          4997.      1.1913E+04   1164.      2.0330E-08  1.4877E-07  4.3236E-08  
         25   2          3407.       6707.       1101.      1.9933E-08  8.1210E-08  4.0907E-08  
         25   3          1764.       4849.       602.7      4.4242E-09  6.1711E-08  2.2386E-08  
         25   4          4596.      1.2137E+04   978.3      1.3641E-08  1.5369E-07  3.6339E-08  
         25   5          3178.       6863.       1057.      1.5983E-08  8.4420E-08  3.9269E-08  
         25   6          1593.       4959.       542.8      1.5055E-09  6.4009E-08  2.0161E-08  
         25   7          4151.      1.2263E+04   769.3      6.7394E-09  1.5740E-07  2.8573E-08  
         25   8          2923.       6979.       1001.      1.1853E-08  8.7165E-08  3.7170E-08  
         25   9          1405.       5036.       474.4     -1.5050E-09  6.5918E-08  1.7621E-08  
         26   1          3926.      1.2357E+04   608.0      3.1317E-09  1.5970E-07  2.2584E-08  
         26   2          2778.       7089.       941.3      9.3055E-09  8.9363E-08  3.4962E-08  
         26   3          1303.       5071.       423.7     -3.1262E-09  6.6863E-08  1.5737E-08  
         26   4          3573.      1.2482E+04   293.0     -2.4447E-09  1.6300E-07  1.0885E-08  
         26   5          2554.       7211.       827.1      5.5819E-09  9.2063E-08  3.0720E-08  
         26   6          1145.       5149.       307.4     -5.7080E-09  6.8645E-08  1.1417E-08  
         26   7          3192.      1.2502E+04  -35.02     -7.9778E-09  1.6492E-07 -1.3009E-09  
         26   8          2312.       7289.       703.3      1.7874E-09  9.4217E-08  2.6123E-08  
         26   9          977.0       5191.       185.3     -8.2928E-09  6.9977E-08  6.8839E-09  
         27   1          3022.      1.2519E+04  -259.8     -1.0477E-08  1.6589E-07 -9.6500E-09  
         27   2          2190.       7372.       597.2     -3.1217E-10  9.5932E-08  2.2181E-08  
         27   3          886.6       5201.       107.9     -9.6246E-09  7.0499E-08  4.0087E-09  
         27   4          2767.      1.2500E+04  -666.4     -1.4040E-08  1.6672E-07 -2.4752E-08  
         27   5          1995.       7435.       424.7     -3.3708E-09  9.7668E-08  1.5775E-08  
         27   6          764.5       5226.      -53.19     -1.1476E-08  7.1383E-08 -1.9757E-09  
         27   7          2495.      1.2375E+04  -1071.     -1.7389E-08  1.6609E-07 -3.9793E-08  
         27   8          1786.       7452.       247.5     -6.4163E-09  9.8802E-08  9.1928E-09  
         27   9          636.3       5216.      -215.8     -1.3262E-08  7.1781E-08 -8.0140E-09  
         28   1          2403.      1.2296E+04  -1329.     -1.8374E-08  1.6536E-07 -4.9369E-08  
         28   2          1705.       7493.       106.4     -7.7610E-09  9.9743E-08  3.9536E-09  
         28   3          567.7       5190.      -311.0     -1.4132E-08  7.1709E-08 -1.1553E-08  
         28   4          2276.      1.2106E+04  -1774.     -1.9370E-08  1.6319E-07 -6.5892E-08  
         28   5          1555.       7479.      -104.5     -9.8310E-09  1.0017E-07 -3.8804E-09  
         28   6          497.2       5148.      -498.0     -1.4961E-08  7.1415E-08 -1.8498E-08  
         28   7          2138.      1.1815E+04  -2200.     -2.0096E-08  1.5962E-07 -8.1726E-08  
         28   8          1397.       7418.      -314.2     -1.1840E-08  9.9990E-08 -1.1669E-08  
         28   9          423.2       5071.      -681.1     -1.5689E-08  7.0636E-08 -2.5298E-08  
         29   1          2131.      1.1634E+04  -2455.     -1.9420E-08  1.5707E-07 -9.1185E-08  
         29   2          1367.       7407.      -472.9     -1.2221E-08  9.9963E-08 -1.7566E-08  
         29   3          381.8       5006.      -782.5     -1.5999E-08  6.9873E-08 -2.9063E-08  
         29   4          2140.      1.1271E+04  -2878.     -1.7727E-08  1.5184E-07 -1.0689E-07  
         29   5          1272.       7305.      -697.5     -1.3138E-08  9.8913E-08 -2.5909E-08  
         29   6          370.7       4891.      -971.5     -1.5664E-08  6.8276E-08 -3.6083E-08  
         29   7          2138.      1.0819E+04  -3266.     -1.5830E-08  1.4540E-07 -1.2131E-07  
         29   8          1169.       7160.      -914.6     -1.3989E-08  9.7278E-08 -3.3972E-08  
         29   9          356.7       4743.      -1151.     -1.5233E-08  6.6233E-08 -4.2749E-08  
         30   1          2210.      1.0546E+04  -3482.     -1.3621E-08  1.4118E-07 -1.2932E-07  
         30   2          1195.       7094.      -1071.     -1.3328E-08  9.6221E-08 -3.9771E-08  
         30   3          343.0       4637.      -1245.     -1.4972E-08  6.4771E-08 -4.6255E-08  
         30   4          2340.      1.0030E+04  -3825.     -9.5573E-09  1.3326E-07 -1.4209E-07  
         30   5          1154.       6905.      -1283.     -1.3108E-08  9.3696E-08 -4.7653E-08  
         30   6          389.6       4451.      -1411.     -1.3511E-08  6.1922E-08 -5.2409E-08  
         30   7          2451.       9444.      -4121.     -5.4664E-09  1.2441E-07 -1.5308E-07  
         30   8          1103.       6677.      -1482.     -1.2859E-08  9.0664E-08 -5.5044E-08  
         30   9          431.9       4239.      -1562.     -1.1997E-08  5.8705E-08 -5.8022E-08  
         31   1          2583.       9100.      -4268.     -2.0995E-09  1.1893E-07 -1.5853E-07  
         31   2          1182.       6561.      -1615.     -1.1229E-08  8.8661E-08 -5.9979E-08  
         31   3          441.6       4097.      -1637.     -1.1249E-08  5.6632E-08 -6.0809E-08  
         31   4          2797.       8473.      -4488.      3.6391E-09  1.0906E-07 -1.6668E-07  
         31   5          1184.       6295.      -1791.     -1.0060E-08  8.4848E-08 -6.6520E-08  
         31   6          534.7       3854.      -1756.     -8.8772E-09  5.2759E-08 -6.5241E-08  
         31   7          2980.       7799.      -4652.      9.1466E-09  9.8649E-08 -1.7277E-07  
         31   8          1174.       5997.      -1950.     -8.9364E-09  8.0640E-08 -7.2415E-08  
         31   9          619.9       3590.      -1858.     -6.5304E-09  4.8632E-08 -6.8997E-08  
         32   1          3143.       7416.      -4710.      1.3118E-08  9.2473E-08 -1.7496E-07  
         32   2          1294.       5843.      -2042.     -6.5496E-09  7.7918E-08 -7.5829E-08  
         32   3          644.1       3421.      -1903.     -5.4610E-09  4.6116E-08 -7.0699E-08  
         32   4          3391.       6735.      -4779.      1.9576E-08  8.1677E-08 -1.7749E-07  
         32   5          1322.       5517.      -2164.     -4.7631E-09  7.3151E-08 -8.0365E-08  
         32   6          764.1       3141.      -1959.     -2.5457E-09  4.1598E-08 -7.2772E-08  
         32   7          3595.       6030.      -4791.      2.5508E-08  7.0740E-08 -1.7794E-07  
         32   8          1332.       5168.      -2266.     -3.1181E-09  6.8125E-08 -8.4178E-08  
         32   9          871.6       2849.      -1995.      2.4190E-10  3.6962E-08 -7.4110E-08  
         33   1          3754.       5643.      -4756.      2.9443E-08  6.4533E-08 -1.7664E-07  
         33   2          1477.       4994.      -2305.     -2.9935E-10  6.5018E-08 -8.5627E-08  
         33   3          898.3       2666.      -2006.      1.4091E-09  3.4231E-08 -7.4513E-08  
         33   4          3980.       4968.      -4669.      3.5563E-08  5.3914E-08 -1.7340E-07  
         33   5          1508.       4633.      -2364.      1.6856E-09  5.9725E-08 -8.7796E-08  
         33   6          1020.       2374.      -1990.      4.3979E-09  2.9548E-08 -7.3913E-08  
         33   7          4149.       4293.      -4532.      4.0874E-08  4.3548E-08 -1.6831E-07  
         33   8          1517.       4257.      -2403.      3.4271E-09  5.4317E-08 -8.9256E-08  
         33   9          1124.       2079.      -1955.      7.1485E-09  2.4887E-08 -7.2610E-08  
         34   1          4272.       3938.      -4410.      4.4144E-08  3.7956E-08 -1.6381E-07  
         34   2          1666.       4085.      -2385.      6.2947E-09  5.1214E-08 -8.8582E-08  
         34   3          1140.       1895.      -1930.      8.1640E-09  2.2192E-08 -7.1684E-08  
         34   4          4423.       3326.      -4186.      4.8936E-08  2.8561E-08 -1.5547E-07  
         34   5          1676.       3713.      -2379.      8.0366E-09  4.5853E-08 -8.8369E-08  
         34   6          1237.       1621.      -1844.      1.0723E-08  1.7851E-08 -6.8473E-08  
         34   7          4509.       2735.      -3924.      5.2694E-08  1.9747E-08 -1.4574E-07  
         34   8          1661.       3334.      -2357.      9.4440E-09  4.0511E-08 -8.7548E-08  
         34   9          1311.       1350.      -1742.      1.2942E-08  1.3661E-08 -6.4685E-08  
         35   1          4567.       2442.      -3737.      5.4773E-08  1.5308E-08 -1.3879E-07  
         35   2          1794.       3184.      -2286.      1.1986E-08  3.7791E-08 -8.4899E-08  
         35   3          1303.       1178.      -1685.      1.3567E-08  1.1242E-08 -6.2589E-08  
         35   4          4604.       1939.      -3411.      5.7465E-08  7.9678E-09 -1.2671E-07  
         35   5          1763.       2824.      -2224.      1.3087E-08  3.2783E-08 -8.2615E-08  
         35   6          1349.       944.2      -1540.      1.5231E-08  7.7049E-09 -5.7204E-08  
         35   7          4571.       1472.      -3066.      5.8995E-08  1.4321E-09 -1.1388E-07  
         35   8          1704.       2464.      -2151.      1.3788E-08  2.7899E-08 -7.9900E-08  
         35   9          1370.       720.3      -1385.      1.6480E-08  4.4199E-09 -5.1445E-08  
         36   1          4545.       1259.      -2842.      5.9536E-08 -1.4969E-09 -1.0558E-07  
         36   2          1805.       2352.      -2037.      1.5708E-08  2.5857E-08 -7.5677E-08  
         36   3          1327.       571.3      -1306.      1.6515E-08  2.4730E-09 -4.8501E-08  
         36   4          4447.       894.3      -2467.      5.9697E-08 -6.2833E-09 -9.1632E-08  
         36   5          1717.       2022.      -1936.      1.5867E-08  2.1530E-08 -7.1899E-08  
         36   6          1303.       397.3      -1122.      1.6917E-08  8.9855E-11 -4.1684E-08  
         36   7          4280.       572.1      -2090.      5.8693E-08 -1.0171E-08 -7.7635E-08  
         36   8          1602.       1698.      -1828.      1.5601E-08  1.7395E-08 -6.7914E-08  
         36   9          1252.       236.9      -935.7      1.6869E-08 -1.9810E-09 -3.4755E-08  
         37   1          4164.       446.4      -1866.      5.7574E-08 -1.1469E-08 -6.9317E-08  
         37   2          1661.       1631.      -1686.      1.6738E-08  1.6185E-08 -6.2630E-08  
         37   3          1167.       117.5      -845.4      1.6173E-08 -3.3238E-09 -3.1401E-08  
         37   4          3932.       227.7      -1495.      5.5201E-08 -1.3599E-08 -5.5546E-08  
         37   5          1508.       1344.      -1564.      1.5784E-08  1.2737E-08 -5.8097E-08  
         37   6          1059.       12.84      -648.7      1.5075E-08 -4.3557E-09 -2.4094E-08  
         37   7          3640.       50.76      -1142.      5.1780E-08 -1.4874E-08 -4.2405E-08  
         37   8          1329.       1064.      -1443.      1.4421E-08  9.5060E-09 -5.3602E-08  
         37   9          924.6      -76.96      -456.7      1.3538E-08 -5.0619E-09 -1.6965E-08  
         38   1          3442.       3.435      -955.4      4.9154E-08 -1.4702E-08 -3.5487E-08  
         38   2          1347.       1043.      -1282.      1.4776E-08  9.1224E-09 -4.7615E-08  
         38   3          791.7      -162.6      -369.7      1.2007E-08 -5.7160E-09 -1.3731E-08  
         38   4          3105.      -82.34      -640.2      4.4709E-08 -1.4483E-08 -2.3777E-08  
         38   5          1126.       800.9      -1161.      1.2656E-08  6.6155E-09 -4.3133E-08  
         38   6          589.6      -198.6      -187.8      9.2736E-09 -5.3636E-09 -6.9737E-09  
         38   7          2720.      -134.2      -356.5      3.9439E-08 -1.3576E-08 -1.3243E-08  
         38   8          883.2       566.6      -1048.      1.0189E-08  4.3089E-09 -3.8921E-08  
         38   9          365.1      -220.6      -18.44      6.1617E-09 -4.7169E-09 -6.8478E-10  
         39   1          2465.      -132.0      -245.2      3.5779E-08 -1.2450E-08 -9.1083E-09  
         39   2          866.7       587.7      -860.5      9.8634E-09  4.6806E-09 -3.1963E-08  
         39   3          176.6      -266.2       45.14      3.6630E-09 -4.5591E-09  1.6768E-09  
         39   4          2082.      -113.1      -20.88      3.0227E-08 -1.0538E-08 -7.7564E-10  
         39   5          577.1       386.0      -763.6      6.5897E-09  3.0414E-09 -2.8362E-08  
         39   6         -134.4      -246.8       182.1     -8.6311E-10 -2.9489E-09  6.7648E-09  
         39   7          1666.      -73.77       163.4      2.4120E-08 -8.1951E-09  6.0708E-09  
         39   8          271.9       190.3      -679.3      3.0687E-09  1.5528E-09 -2.5233E-08  
         39   9         -460.4      -216.0       298.8     -5.6509E-09 -1.1123E-09  1.1098E-08  
         40   1          1402.      -85.50       171.2      2.0390E-08 -7.2285E-09  6.3581E-09  
         40   2          225.1       286.0      -411.3      1.9894E-09  3.1209E-09 -1.5275E-08  
         40   3         -735.2      -212.3       264.7     -9.5928E-09  1.1850E-10  9.8308E-09  
         40   4          1081.       14.20       301.0      1.5385E-08 -4.4309E-09  1.1179E-08  
         40   5         -150.4       99.97      -361.9     -2.5764E-09  2.0725E-09 -1.3441E-08  
         40   6         -1215.      -181.3       319.0     -1.6573E-08  2.6148E-09  1.1849E-08  
         40   7          737.8       117.2       390.8      1.0037E-08 -1.4874E-09  1.4514E-08  
         40   8         -532.6      -82.62      -330.2     -7.2538E-09  1.1020E-09 -1.2263E-08  
         40   9         -1697.      -142.4       343.9     -2.3627E-08  5.2368E-09  1.2774E-08  
         41   1          2710.       3723.       27.73      2.2764E-08  4.1567E-08  1.0301E-09  
         41   2          2296.       3267.       26.98      1.8799E-08  3.6833E-08  1.0022E-09  
         41   3          1917.       2929.       24.15      1.4835E-08  3.3629E-08  8.9702E-10  
         41   4          2699.       3755.       135.9      2.2460E-08  4.2074E-08  5.0467E-09  
         41   5          2286.       3294.       118.5      1.8534E-08  3.7260E-08  4.4018E-09  
         41   6          1907.       2952.       102.5      1.4595E-08  3.4003E-08  3.8087E-09  
         41   7          2650.       3766.       241.6      2.1718E-08  4.2448E-08  8.9745E-09  
         41   8          2245.       3304.       208.1      1.7912E-08  3.7573E-08  7.7294E-09  
         41   9          1872.       2961.       179.3      1.4052E-08  3.4274E-08  6.6586E-09  
         42   1          2618.       3787.       291.6      2.1166E-08  4.2879E-08  1.0830E-08  
         42   2          2216.       3324.       257.0      1.7405E-08  3.7994E-08  9.5439E-09  
         42   3          1845.       2979.       222.9      1.3592E-08  3.4655E-08  8.2800E-09  
         42   4          2549.       3859.       381.4      1.9870E-08  4.4211E-08  1.4167E-08  
         42   5          2156.       3385.       333.1      1.6300E-08  3.9111E-08  1.2371E-08  
         42   6          1792.       3032.       287.6      1.2611E-08  3.5629E-08  1.0682E-08  
         42   7          2445.       3910.       464.5      1.8178E-08  4.5373E-08  1.7253E-08  
         42   8          2069.       3427.       403.7      1.4872E-08  4.0087E-08  1.4995E-08  
         42   9          1715.       3068.       347.6      1.1356E-08  3.6476E-08  1.2910E-08  
         43   1          2385.       3946.       498.9      1.7154E-08  4.6154E-08  1.8530E-08  
         43   2          2014.       3464.       438.0      1.3930E-08  4.0854E-08  1.6269E-08  
         43   3          1666.       3102.       378.0      1.0503E-08  3.7173E-08  1.4040E-08  
         43   4          2269.       4049.       552.4      1.5067E-08  4.8111E-08  2.0517E-08  
         43   5          1915.       3549.       483.6      1.2151E-08  4.2495E-08  1.7963E-08  
         43   6          1578.       3175.       415.6      8.9294E-09  3.8598E-08  1.5437E-08  
         43   7          2124.       4125.       596.0      1.2659E-08  4.9834E-08  2.2138E-08  
         43   8          1792.       3613.       521.2      1.0111E-08  4.3942E-08  1.9359E-08  
         43   9          1469.       3230.       446.4      7.1357E-09  3.9850E-08  1.6579E-08  
         44   1          2042.       4170.       607.2      1.1308E-08  5.0814E-08  2.2555E-08  
         44   2          1719.       3660.       533.8      8.8691E-09  4.4921E-08  1.9825E-08  
         44   3          1403.       3273.       456.9      6.0122E-09  4.0741E-08  1.6971E-08  
         44   4          1898.       4285.       611.8      8.7447E-09  5.3085E-08  2.2724E-08  
         44   5          1594.       3756.       538.3      6.6797E-09  4.6823E-08  1.9994E-08  
         44   6          1292.       3354.       458.2      4.0809E-09  4.2381E-08  1.7019E-08  
         44   7          1729.       4371.       605.2      5.9601E-09  5.5039E-08  2.2478E-08  
         44   8          1450.       3827.       533.7      4.3090E-09  4.8464E-08  1.9824E-08  
         44   9          1164.       3415.       451.7      1.9989E-09  4.3792E-08  1.6779E-08  
         45   1          1637.       4413.       589.4      4.4679E-09  5.6028E-08  2.1894E-08  
         45   2          1368.       3874.       520.7      2.9422E-09  4.9479E-08  1.9340E-08  
         45   3          1091.       3458.       438.8      7.6665E-10  4.4718E-08  1.6299E-08  
         45   4          1483.       4521.       539.8      1.8120E-09  5.8235E-08  2.0049E-08  
         45   5          1235.       3963.       479.7      6.6054E-10  5.1324E-08  1.7818E-08  
         45   6          973.0       3532.       400.0     -1.2391E-09  4.6292E-08  1.4858E-08  
         45   7          1312.       4596.       479.8     -9.5841E-10  6.0037E-08  1.7821E-08  
         45   8          1087.       4025.       430.3     -1.7156E-09  5.2838E-08  1.5983E-08  
         45   9          842.5       3583.       354.1     -3.3203E-09  4.7576E-08  1.3152E-08  
         46   1          1220.       4624.       437.6     -2.3940E-09  6.0832E-08  1.6252E-08  
         46   2          1007.       4061.       391.7     -3.0177E-09  5.3699E-08  1.4549E-08  
         46   3          771.1       3617.       317.7     -4.4850E-09  4.8363E-08  1.1799E-08  
         46   4          1079.       4705.       336.6     -4.7470E-09  6.2586E-08  1.2502E-08  
         46   5          883.4       4126.       307.7     -5.0635E-09  5.5161E-08  1.1427E-08  
         46   6          661.5       3669.       241.1     -6.2744E-09  4.9581E-08  8.9554E-09  
         46   7          926.3       4748.       228.3     -7.1162E-09  6.3861E-08  8.4803E-09  
         46   8          749.7       4161.       217.6     -7.1238E-09  5.6231E-08  8.0812E-09  
         46   9          543.6       3695.       159.6     -8.0700E-09  5.0458E-08  5.9267E-09  
         47   1          843.4       4753.       164.1     -8.3192E-09  6.4280E-08  6.0959E-09  
         47   2          680.2       4178.       157.4     -8.1865E-09  5.6764E-08  5.8446E-09  
         47   3          483.2       3711.       103.2     -9.0023E-09  5.0944E-08  3.8322E-09  
         47   4          734.7       4787.       22.63     -1.0020E-08  6.5239E-08  8.4043E-10  
         47   5          581.5       4203.       39.14     -9.7077E-09  5.7556E-08  1.4538E-09  
         47   6          395.8       3728.      -2.991     -1.0321E-08  5.1554E-08 -1.1108E-10  
         47   7          618.4       4783.      -121.4     -1.1663E-08  6.5675E-08 -4.5088E-09  
         47   8          476.4       4197.      -81.23     -1.1183E-08  5.7919E-08 -3.0172E-09  
         47   9          303.4       3716.      -110.7     -1.1593E-08  5.1792E-08 -4.1136E-09  
         48   1          551.4       4756.      -199.7     -1.2506E-08  6.5583E-08 -7.4174E-09  
         48   2          424.9       4187.      -155.9     -1.1873E-08  5.7988E-08 -5.7888E-09  
         48   3          260.9       3708.      -180.4     -1.2164E-08  5.1852E-08 -6.7015E-09  
         48   4          488.3       4732.      -364.6     -1.3305E-08  6.5508E-08 -1.3544E-08  
         48   5          362.3       4162.      -294.0     -1.2662E-08  5.7908E-08 -1.0921E-08  
         48   6          205.5       3679.      -303.4     -1.2832E-08  5.1677E-08 -1.1269E-08  
         48   7          420.2       4669.      -526.1     -1.4008E-08  6.4902E-08 -1.9542E-08  
         48   8          295.6       4106.      -429.6     -1.3375E-08  5.7393E-08 -1.5956E-08  
         48   9          147.0       3623.      -423.8     -1.3427E-08  5.1127E-08 -1.5741E-08  
         49   1          372.3       4608.      -608.8     -1.4430E-08  6.4233E-08 -2.2612E-08  
         49   2          266.1       4065.      -509.2     -1.3618E-08  5.6926E-08 -1.8914E-08  
         49   3          126.4       3586.      -497.9     -1.3564E-08  5.0691E-08 -1.8494E-08  
         49   4          361.2       4520.      -776.2     -1.4211E-08  6.3019E-08 -2.8830E-08  
         49   5          244.8       3985.      -650.0     -1.3583E-08  5.5884E-08 -2.4143E-08  
         49   6          107.3       3508.      -622.1     -1.3502E-08  4.9657E-08 -2.3107E-08  
         49   7          345.4       4395.      -933.9     -1.3904E-08  6.1312E-08 -3.4689E-08  
         49   8          219.7       3877.      -783.1     -1.3476E-08  5.4438E-08 -2.9087E-08  
         49   9          85.41       3405.      -739.4     -1.3372E-08  4.8276E-08 -2.7462E-08  
         50   1          315.8       4300.      -1011.     -1.3916E-08  6.0073E-08 -3.7543E-08  
         50   2          212.3       3804.      -857.6     -1.3270E-08  5.3433E-08 -3.1852E-08  
         50   3          87.31       3340.      -808.2     -1.3068E-08  4.7343E-08 -3.0019E-08  
         50   4          354.7       4150.      -1159.     -1.2720E-08  5.7772E-08 -4.3044E-08  
         50   5          230.6       3672.      -982.9     -1.2443E-08  5.1469E-08 -3.6508E-08  
         50   6          102.7       3215.      -917.6     -1.2312E-08  4.5491E-08 -3.4081E-08  
         50   7          387.0       3970.      -1292.     -1.1486E-08  5.5058E-08 -4.7977E-08  
         50   8          243.5       3515.      -1096.     -1.1584E-08  4.9166E-08 -4.0711E-08  
         50   9          113.9       3069.      -1016.     -1.1525E-08  4.3351E-08 -3.7739E-08  
         51   1          371.4       3844.      -1354.     -1.1169E-08  5.3327E-08 -5.0280E-08  
         51   2          254.7       3415.      -1156.     -1.0997E-08  4.7694E-08 -4.2933E-08  
         51   3          134.9       2980.      -1070.     -1.0842E-08  4.1987E-08 -3.9758E-08  
         51   4          450.5       3645.      -1463.     -9.1846E-09  5.0135E-08 -5.4343E-08  
         51   5          304.2       3239.      -1250.     -9.5359E-09  4.4970E-08 -4.6419E-08  
         51   6          177.1       2816.      -1151.     -9.5388E-09  3.9469E-08 -4.2740E-08  
         51   7          518.9       3421.      -1553.     -7.2498E-09  4.6651E-08 -5.7687E-08  
         51   8          345.4       3044.      -1328.     -8.1115E-09  4.2004E-08 -4.9329E-08  
         51   9          212.2       2636.      -1217.     -8.2654E-09  3.6748E-08 -4.5212E-08  
         52   1          510.1       3272.      -1594.     -6.7371E-09  4.4559E-08 -5.9191E-08  
         52   2          368.2       2924.      -1366.     -7.2713E-09  4.0194E-08 -5.0732E-08  
         52   3          246.0       2529.      -1250.     -7.3266E-09  3.5080E-08 -4.6424E-08  
         52   4          612.7       3040.      -1650.     -4.2742E-09  4.0797E-08 -6.1287E-08  
         52   5          435.4       2719.      -1416.     -5.4326E-09  3.6974E-08 -5.2610E-08  
         52   6          302.3       2340.      -1291.     -5.7117E-09  3.2139E-08 -4.7942E-08  
         52   7          699.3       2792.      -1685.     -1.9744E-09  3.6885E-08 -6.2595E-08  
         52   8          489.8       2501.      -1450.     -3.7205E-09  3.3628E-08 -5.3857E-08  
         52   9          348.0       2141.      -1317.     -4.2053E-09  2.9097E-08 -4.8904E-08  
         53   1          688.4       2628.      -1701.     -1.4305E-09  3.4600E-08 -6.3171E-08  
         53   2          515.3       2370.      -1461.     -2.7969E-09  3.1654E-08 -5.4281E-08  
         53   3          385.5       2026.      -1323.     -3.1771E-09  2.7296E-08 -4.9151E-08  
         53   4          793.9       2384.      -1697.      1.1230E-09  3.0660E-08 -6.3041E-08  
         53   5          583.0       2154.      -1463.     -9.0153E-10  2.8267E-08 -5.4338E-08  
         53   6          440.5       1828.      -1320.     -1.5430E-09  2.4232E-08 -4.9027E-08  
         53   7          877.6       2134.      -1673.      3.3913E-09  2.6723E-08 -6.2149E-08  
         53   8          633.3       1931.      -1448.      7.7009E-10  2.4875E-08 -5.3785E-08  
         53   9          480.8       1626.      -1302.     -1.0215E-10  2.1174E-08 -4.8371E-08  
         54   1          855.3       1966.      -1664.      3.7922E-09  2.4422E-08 -6.1794E-08  
         54   2          651.4       1801.      -1432.      1.5888E-09  2.2933E-08 -5.3206E-08  
         54   3          512.3       1514.      -1282.      8.2995E-10  1.9432E-08 -4.7632E-08  
         54   4          941.7       1733.      -1601.      6.0264E-09  2.0720E-08 -5.9479E-08  
         54   5          701.4       1591.      -1386.      3.2012E-09  1.9725E-08 -5.1485E-08  
         54   6          549.5       1324.      -1236.      2.1750E-09  1.6563E-08 -4.5927E-08  
         54   7          1001.       1502.      -1522.      7.8620E-09  1.7161E-08 -5.6527E-08  
         54   8          729.9       1383.      -1326.      4.5003E-09  1.6626E-08 -4.9255E-08  
         54   9          568.4       1136.      -1179.      3.2492E-09  1.3799E-08 -4.3782E-08  
         55   1          958.5       1339.      -1490.      7.9564E-09  1.5014E-08 -5.5361E-08  
         55   2          731.0       1263.      -1287.      5.0307E-09  1.4907E-08 -4.7792E-08  
         55   3          584.4       1036.      -1136.      3.9074E-09  1.2298E-08 -4.2183E-08  
         55   4          1006.       1137.      -1378.      9.4946E-09  1.1930E-08 -5.1197E-08  
         55   5          746.9       1078.      -1201.      6.0501E-09  1.2198E-08 -4.4591E-08  
         55   6          589.2       870.8      -1055.      4.6850E-09  9.9145E-09 -3.9196E-08  
         55   7          1021.       943.5      -1255.      1.0546E-08  9.1014E-09 -4.6606E-08  
         55   8          738.0       899.5      -1105.      6.6882E-09  9.6876E-09 -4.1050E-08  
         55   9          572.9       711.8      -967.2      5.1342E-09  7.7132E-09 -3.5924E-08  
         56   1          951.7       793.6      -1208.      1.0194E-08  7.2586E-09 -4.4861E-08  
         56   2          714.0       799.4      -1049.      6.7742E-09  8.3595E-09 -3.8963E-08  
         56   3          566.0       632.0      -908.1      5.3770E-09  6.6023E-09 -3.3728E-08  
         56   4          943.6       639.3      -1062.      1.0740E-08  5.0891E-09 -3.9432E-08  
         56   5          683.4       652.6      -937.0      6.9662E-09  6.3945E-09 -3.4802E-08  
         56   6          527.9       502.9      -807.0      5.3861E-09  4.9224E-09 -2.9976E-08  
         56   7          901.9       498.0      -911.3      1.0750E-08  3.2497E-09 -3.3848E-08  
         56   8          626.7       515.9      -821.7      6.7416E-09  4.6846E-09 -3.0521E-08  
         56   9          467.7       383.1      -703.6      5.0395E-09  3.4691E-09 -2.6134E-08  
         57   1          799.5       368.5      -858.2      9.8416E-09  1.8376E-09 -3.1876E-08  
         57   2          572.1       442.4      -759.4      6.2765E-09  3.8680E-09 -2.8206E-08  
         57   3          433.9       328.5      -638.3      4.7904E-09  2.8339E-09 -2.3710E-08  
         57   4          726.7       272.1      -698.7      9.2161E-09  7.7198E-10 -2.5952E-08  
         57   5          489.2       341.5      -640.0      5.5249E-09  2.7820E-09 -2.3771E-08  
         57   6          349.5       241.8      -534.8      3.9565E-09  1.9564E-09 -1.9864E-08  
         57   7          621.0       190.7      -543.4      8.0540E-09  6.2514E-11 -2.0184E-08  
         57   8          381.0       251.9      -524.0      4.3627E-09  1.9659E-09 -1.9462E-08  
         57   9          243.9       164.9      -434.7      2.7777E-09  1.3100E-09 -1.6144E-08  
         58   1          482.7       87.66      -498.6      6.5205E-09 -8.1662E-10 -1.8519E-08  
         58   2          294.8       206.6      -469.5      3.3255E-09  1.6875E-09 -1.7440E-08  
         58   3          184.1       135.2      -374.5      2.0504E-09  1.1427E-09 -1.3908E-08  
         58   4          345.5       53.93      -350.6      4.7046E-09 -7.1027E-10 -1.3022E-08  
         58   5          163.0       152.0      -363.4      1.6768E-09  1.4733E-09 -1.3499E-08  
         58   6          59.37       87.96      -287.5      4.7117E-10  1.0021E-09 -1.0677E-08  
         58   7          179.4       34.50      -215.5      2.4153E-09 -2.7609E-10 -8.0034E-09  
         58   8          9.434       107.6      -267.3     -3.2655E-10  1.4973E-09 -9.9277E-09  
         58   9         -83.31       48.80      -209.3     -1.3993E-09  1.0542E-09 -7.7726E-09  
         59   1          8.936      -38.11      -204.5      2.9100E-10 -5.8277E-10 -7.5959E-09  
         59   2         -102.5       77.31      -235.6     -1.7954E-09  1.5437E-09 -8.7520E-09  
         59   3         -160.8       37.52      -161.4     -2.4586E-09  1.2253E-09 -5.9949E-09  
         59   4         -173.0      -8.350      -98.44     -2.4360E-09  6.2226E-10 -3.6563E-09  
         59   5         -265.6       62.75      -162.2     -4.0631E-09  2.0346E-09 -6.0237E-09  
         59   6         -309.3       17.63      -103.8     -4.4937E-09  1.5773E-09 -3.8565E-09  
         59   7         -374.0       31.80      -12.89     -5.4795E-09  2.0573E-09 -4.7870E-10  
         59   8         -443.1       54.98      -104.1     -6.5657E-09  2.6845E-09 -3.8650E-09  
         59   9         -469.6       2.547      -59.15     -6.7200E-09  2.0491E-09 -2.1971E-09  
         60   1         -539.1      -25.95      -91.11     -7.5902E-09  1.9397E-09 -3.3840E-09  
         60   2         -558.9      -9.795      -67.39     -7.9423E-09  2.2554E-09 -2.5032E-09  
         60   3         -571.1       15.04      -29.66     -8.2232E-09  2.6624E-09 -1.1017E-09  
         60   4         -642.4       78.49      -65.84     -9.5133E-09  3.8744E-09 -2.4456E-09  
         60   5         -724.9       2.928      -37.71     -1.0368E-08  3.1485E-09 -1.4006E-09  
         60   6         -785.7      -9.775       5.838     -1.1183E-08  3.2278E-09  2.1684E-10  
         60   7         -747.8       184.5      -61.24     -1.1474E-08  5.8405E-09 -2.2745E-09  
         60   8         -893.0       18.42      -25.77     -1.2837E-08  4.0905E-09 -9.5727E-10  
         60   9         -1003.      -30.54       24.06     -1.4191E-08  3.8602E-09  8.9363E-10  
         61   1          1783.       2786.       22.94      1.3534E-08  3.2160E-08  8.5218E-10  
         61   2          1600.       2591.       21.04      1.1755E-08  3.0163E-08  7.8139E-10  
         61   3          1427.       2429.       18.86      9.9756E-09  2.8591E-08  7.0053E-10  
         61   4          1774.       2808.       97.02      1.3307E-08  3.2513E-08  3.6036E-09  
         61   5          1591.       2611.       89.12      1.1543E-08  3.0486E-08  3.3101E-09  
         61   6          1419.       2448.       81.59      9.7753E-09  2.8892E-08  3.0305E-09  
         61   7          1740.       2816.       169.5      1.2792E-08  3.2770E-08  6.2957E-09  
         61   8          1561.       2619.       155.8      1.1073E-08  3.0723E-08  5.7854E-09  
         61   9          1390.       2455.       143.0      9.3404E-09  2.9112E-08  5.3114E-09  
         62   1          1715.       2834.       211.0      1.2356E-08  3.3132E-08  7.8360E-09  
         62   2          1538.       2635.       193.8      1.0673E-08  3.1057E-08  7.1974E-09  
         62   3          1369.       2470.       177.0      8.9731E-09  2.9413E-08  6.5744E-09  
         62   4          1665.       2883.       272.1      1.1428E-08  3.4054E-08  1.0105E-08  
         62   5          1491.       2681.       249.9      9.8164E-09  3.1903E-08  9.2827E-09  
         62   6          1326.       2512.       228.5      8.1723E-09  3.0200E-08  8.4886E-09  
         62   7          1592.       2917.       328.7      1.0240E-08  3.4855E-08  1.2208E-08  
         62   8          1425.       2712.       302.0      8.7274E-09  3.2641E-08  1.1218E-08  
         62   9          1264.       2541.       276.4      7.1600E-09  3.0887E-08  1.0265E-08  
         63   1          1545.       2950.       357.6      9.4305E-09  3.5518E-08  1.3281E-08  
         63   2          1381.       2742.       328.5      7.9843E-09  3.3250E-08  1.2200E-08  
         63   3          1224.       2568.       299.8      6.4789E-09  3.1435E-08  1.1135E-08  
         63   4          1462.       3019.       393.1      7.9422E-09  3.6864E-08  1.4599E-08  
         63   5          1305.       2806.       361.1      6.6131E-09  3.4488E-08  1.3411E-08  
         63   6          1152.       2627.       329.3      5.1993E-09  3.2585E-08  1.2231E-08  
         63   7          1359.       3071.       422.0      6.2463E-09  3.8048E-08  1.5674E-08  
         63   8          1210.       2853.       387.8      5.0555E-09  3.5578E-08  1.4403E-08  
         63   9          1064.       2671.       353.4      3.7512E-09  3.3598E-08  1.3125E-08  
         64   1          1296.       3111.       432.0      5.1802E-09  3.8895E-08  1.6047E-08  
         64   2          1153.       2891.       396.9      4.0774E-09  3.6356E-08  1.4742E-08  
         64   3          1011.       2704.       361.0      2.8547E-09  3.4297E-08  1.3407E-08  
         64   4          1191.       3189.       433.1      3.3533E-09  4.0446E-08  1.6088E-08  
         64   5          1056.       2962.       397.9      2.3945E-09  3.7782E-08  1.4780E-08  
         64   6          921.0       2770.       360.9      1.2875E-09  3.5618E-08  1.3406E-08  
         64   7          1071.       3246.       426.9      1.3859E-09  4.1778E-08  1.5857E-08  
         64   8          945.3       3014.       392.3      5.8562E-10  3.9011E-08  1.4571E-08  
         64   9          818.1       2819.       354.8     -3.9277E-10  3.6759E-08  1.3178E-08  
         65   1          1001.       3286.       414.6      2.1702E-10  4.2659E-08  1.5401E-08  
         65   2          881.4       3052.       381.0     -4.8670E-10  3.9818E-08  1.4150E-08  
         65   3          759.1       2851.       343.7     -1.3755E-09  3.7478E-08  1.2768E-08  
         65   4          889.5       3357.       377.9     -1.6800E-09  4.4144E-08  1.4035E-08  
         65   5          778.5       3116.       347.1     -2.2349E-09  4.1185E-08  1.2894E-08  
         65   6          663.3       2911.       311.1     -2.9989E-09  3.8741E-08  1.1557E-08  
         65   7          766.2       3405.       334.4     -3.6456E-09  4.5356E-08  1.2419E-08  
         65   8          665.2       3161.       307.2     -4.0442E-09  4.2304E-08  1.1412E-08  
         65   9          558.2       2952.       273.0     -4.6757E-09  3.9776E-08  1.0140E-08  
         66   1          698.6       3437.       299.8     -4.7496E-09  4.6104E-08  1.1135E-08  
         66   2          603.0       3190.       275.5     -5.0574E-09  4.2990E-08  1.0232E-08  
         66   3          500.7       2977.       243.4     -5.6049E-09  4.0378E-08  9.0396E-09  
         66   4          594.9       3486.       227.4     -6.4418E-09  4.7251E-08  8.4448E-09  
         66   5          507.3       3235.       208.9     -6.6183E-09  4.4046E-08  7.7577E-09  
         66   6          412.1       3018.       180.2     -7.0474E-09  4.1347E-08  6.6931E-09  
         66   7          483.5       3510.       150.3     -8.1373E-09  4.8078E-08  5.5823E-09  
         66   8          404.8       3258.       138.0     -8.1813E-09  4.4812E-08  5.1269E-09  
         66   9          317.4       3039.       113.2     -8.4889E-09  4.2048E-08  4.2053E-09  
         67   1          426.4       3526.       96.78     -9.0197E-09  4.8541E-08  3.5946E-09  
         67   2          352.1       3272.       88.99     -8.9926E-09  4.5235E-08  3.3053E-09  
         67   3          268.2       3049.       67.95     -9.2348E-09  4.2405E-08  2.5240E-09  
         67   4          343.5       3541.      -3.517     -1.0267E-08  4.9111E-08 -1.3062E-10  
         67   5          275.6       3286.      -3.298     -1.0146E-08  4.5762E-08 -1.2251E-10  
         67   6          197.9       3061.      -19.04     -1.0289E-08  4.2875E-08 -7.0718E-10  
         67   7          256.2       3530.      -105.2     -1.1470E-08  4.9333E-08 -3.9083E-09  
         67   8          195.0       3277.      -96.88     -1.1257E-08  4.5973E-08 -3.5985E-09  
         67   9          124.1       3051.      -107.1     -1.1303E-08  4.3054E-08 -3.9796E-09  
         68   1          216.1       3522.      -171.3     -1.2008E-08  4.9393E-08 -6.3631E-09  
         68   2          157.8       3269.      -157.4     -1.1756E-08  4.6025E-08 -5.8452E-09  
         68   3          88.82       3041.      -162.6     -1.1766E-08  4.3068E-08 -6.0412E-09  
         68   4          163.4       3494.      -287.3     -1.2642E-08  4.9221E-08 -1.0673E-08  
         68   5          108.9       3244.      -264.2     -1.2345E-08  4.5869E-08 -9.8121E-09  
         68   6          44.78       3016.      -262.9     -1.2287E-08  4.2896E-08 -9.7655E-09  
         68   7          107.8       3441.      -400.8     -1.3208E-08  4.8699E-08 -1.4889E-08  
         68   8          57.48       3195.      -368.7     -1.2872E-08  4.5397E-08 -1.3695E-08  
[...]
      4658      -9.9847E-08  4.1934E-07   0.000       0.000     
      4660      -8.7420E-08  4.2082E-07   0.000       0.000     
      4662      -7.4965E-08  4.2215E-07   0.000       0.000     
      4664      -6.2489E-08  4.2330E-07   0.000       0.000     
      4666      -4.9999E-08  4.2426E-07   0.000       0.000     
      4668      -3.7501E-08  4.2503E-07   0.000       0.000     
      4670      -2.5000E-08  4.2559E-07   0.000       0.000     
      4672      -1.2500E-08  4.2593E-07   0.000       0.000     
      4674        0.000      4.2605E-07  -2.163       0.000     
      4675      -1.3744E-07   0.000       0.000      -1501.     
      4676      -1.3743E-07  2.2562E-08   0.000       0.000     
      4677      -1.3741E-07  4.5123E-08   0.000       0.000     
      4678      -1.3736E-07  6.7681E-08   0.000       0.000     
      4679      -1.3730E-07  9.0234E-08   0.000       0.000     
      4680      -1.3722E-07  1.1278E-07   0.000       0.000     
      4681      -1.3713E-07  1.3532E-07   0.000       0.000     
      4682      -1.3702E-07  1.5785E-07   0.000       0.000     
      4683      -1.3690E-07  1.8037E-07   0.000       0.000     
      4684      -1.3677E-07  2.0287E-07   0.000       0.000     
      4685      -1.3662E-07  2.2536E-07   0.000       0.000     
      4686      -1.3646E-07  2.4784E-07   0.000       0.000     
      4687      -1.3629E-07  2.7029E-07   0.000       0.000     
      4688      -1.3610E-07  2.9273E-07   0.000       0.000     
      4689      -1.3591E-07  3.1514E-07   0.000       0.000     
      4690      -1.3570E-07  3.3753E-07   0.000       0.000     
      4691      -1.3549E-07  3.5989E-07   0.000       0.000     
      4692      -1.3526E-07  3.8223E-07   0.000       0.000     
      4693      -1.3503E-07  4.0453E-07   0.000       0.000     
      4694      -1.3478E-07  4.2681E-07   0.000       0.000     
      4695      -1.3453E-07  4.4906E-07   0.000       0.000     
      4696      -1.2785E-07  4.4987E-07   0.000       0.000     
      4697      -1.2117E-07  4.5066E-07   0.000       0.000     
      4698      -1.1448E-07  4.5141E-07   0.000       0.000     
      4699      -1.0777E-07  4.5212E-07   0.000       0.000     
      4700      -1.0106E-07  4.5281E-07   0.000       0.000     
      4701      -9.4349E-08  4.5346E-07   0.000       0.000     
      4702      -8.7627E-08  4.5407E-07   0.000       0.000     
      4703      -8.0899E-08  4.5464E-07   0.000       0.000     
      4704      -7.4167E-08  4.5518E-07   0.000       0.000     
      4705      -6.7431E-08  4.5568E-07   0.000       0.000     
      4706      -6.0693E-08  4.5613E-07   0.000       0.000     
      4707      -5.3951E-08  4.5654E-07   0.000       0.000     
      4708      -4.7208E-08  4.5691E-07   0.000       0.000     
      4709      -4.0465E-08  4.5724E-07   0.000       0.000     
      4710      -3.3720E-08  4.5751E-07   0.000       0.000     
      4711      -2.6976E-08  4.5774E-07   0.000       0.000     
      4712      -2.0231E-08  4.5792E-07   0.000       0.000     
      4713      -1.3487E-08  4.5805E-07   0.000       0.000     
      4714      -6.7436E-09  4.5813E-07   0.000       0.000     
      4715        0.000      4.5815E-07  -1.059       0.000     
      4716      -1.4708E-07   0.000       0.000      -3001.     
      4718      -1.4705E-07  4.8411E-08   0.000       0.000     
      4720      -1.4695E-07  9.6812E-08   0.000       0.000     
      4722      -1.4680E-07  1.4519E-07   0.000       0.000     
      4724      -1.4659E-07  1.9354E-07   0.000       0.000     
      4726      -1.4634E-07  2.4184E-07   0.000       0.000     
      4728      -1.4604E-07  2.9008E-07   0.000       0.000     
      4730      -1.4570E-07  3.3825E-07   0.000       0.000     
      4732      -1.4532E-07  3.8633E-07   0.000       0.000     
      4734      -1.4491E-07  4.3432E-07   0.000       0.000     
      4736      -1.4446E-07  4.8221E-07   0.000       0.000     
      4738      -1.3009E-07  4.8361E-07   0.000       0.000     
      4740      -1.1569E-07  4.8491E-07   0.000       0.000     
      4742      -1.0127E-07  4.8609E-07   0.000       0.000     
      4744      -8.6828E-08  4.8714E-07   0.000       0.000     
      4746      -7.2369E-08  4.8806E-07   0.000       0.000     
      4748      -5.7899E-08  4.8883E-07   0.000       0.000     
      4750      -4.3425E-08  4.8945E-07   0.000       0.000     
      4752      -2.8949E-08  4.8990E-07   0.000       0.000     
      4754      -1.4474E-08  4.9017E-07   0.000       0.000     
      4756        0.000      4.9027E-07  -2.170       0.000     
      4757      -1.5672E-07   0.000       0.000      -1501.     
      4758      -1.5671E-07  2.5850E-08   0.000       0.000     
      4759      -1.5669E-07  5.1698E-08   0.000       0.000     
      4760      -1.5666E-07  7.7545E-08   0.000       0.000     
      4761      -1.5661E-07  1.0339E-07   0.000       0.000     
      4762      -1.5654E-07  1.2923E-07   0.000       0.000     
      4763      -1.5647E-07  1.5506E-07   0.000       0.000     
      4764      -1.5638E-07  1.8089E-07   0.000       0.000     
      4765      -1.5628E-07  2.0670E-07   0.000       0.000     
      4766      -1.5617E-07  2.3251E-07   0.000       0.000     
      4767      -1.5605E-07  2.5831E-07   0.000       0.000     
      4768      -1.5592E-07  2.8409E-07   0.000       0.000     
      4769      -1.5578E-07  3.0986E-07   0.000       0.000     
      4770      -1.5564E-07  3.3561E-07   0.000       0.000     
      4771      -1.5548E-07  3.6135E-07   0.000       0.000     
      4772      -1.5532E-07  3.8707E-07   0.000       0.000     
      4773      -1.5515E-07  4.1277E-07   0.000       0.000     
      4774      -1.5497E-07  4.3845E-07   0.000       0.000     
      4775      -1.5478E-07  4.6411E-07   0.000       0.000     
      4776      -1.5459E-07  4.8974E-07   0.000       0.000     
      4777      -1.5438E-07  5.1535E-07   0.000       0.000     
      4778      -1.4670E-07  5.1597E-07   0.000       0.000     
      4779      -1.3901E-07  5.1657E-07   0.000       0.000     
      4780      -1.3131E-07  5.1715E-07   0.000       0.000     
      4781      -1.2361E-07  5.1770E-07   0.000       0.000     
      4782      -1.1590E-07  5.1822E-07   0.000       0.000     
      4783      -1.0819E-07  5.1872E-07   0.000       0.000     
      4784      -1.0047E-07  5.1920E-07   0.000       0.000     
      4785      -9.2752E-08  5.1964E-07   0.000       0.000     
      4786      -8.5028E-08  5.2006E-07   0.000       0.000     
      4787      -7.7301E-08  5.2044E-07   0.000       0.000     
      4788      -6.9573E-08  5.2080E-07   0.000       0.000     
      4789      -6.1843E-08  5.2112E-07   0.000       0.000     
      4790      -5.4112E-08  5.2141E-07   0.000       0.000     
      4791      -4.6381E-08  5.2166E-07   0.000       0.000     
      4792      -3.8650E-08  5.2188E-07   0.000       0.000     
      4793      -3.0919E-08  5.2206E-07   0.000       0.000     
      4794      -2.3189E-08  5.2220E-07   0.000       0.000     
      4795      -1.5459E-08  5.2230E-07   0.000       0.000     
      4796      -7.7293E-09  5.2236E-07   0.000       0.000     
      4797        0.000      5.2239E-07  -1.133       0.000     
      4798      -1.6636E-07   0.000       0.000      -3001.     
      4800      -1.6634E-07  5.4985E-08   0.000       0.000     
      4802      -1.6626E-07  1.0996E-07   0.000       0.000     
      4804      -1.6613E-07  1.6493E-07   0.000       0.000     
      4806      -1.6597E-07  2.1987E-07   0.000       0.000     
      4808      -1.6577E-07  2.7477E-07   0.000       0.000     
      4810      -1.6553E-07  3.2964E-07   0.000       0.000     
      4812      -1.6526E-07  3.8445E-07   0.000       0.000     
      4814      -1.6497E-07  4.3920E-07   0.000       0.000     
      4816      -1.6465E-07  4.9389E-07   0.000       0.000     
      4818      -1.6430E-07  5.4850E-07   0.000       0.000     
      4820      -1.4792E-07  5.4953E-07   0.000       0.000     
      4822      -1.3152E-07  5.5048E-07   0.000       0.000     
      4824      -1.1510E-07  5.5136E-07   0.000       0.000     
      4826      -9.8669E-08  5.5214E-07   0.000       0.000     
      4828      -8.2227E-08  5.5283E-07   0.000       0.000     
      4830      -6.5781E-08  5.5341E-07   0.000       0.000     
      4832      -4.9333E-08  5.5388E-07   0.000       0.000     
      4834      -3.2886E-08  5.5422E-07   0.000       0.000     
      4836      -1.6442E-08  5.5444E-07   0.000       0.000     
      4838        0.000      5.5451E-07  -2.459       0.000     
      4839      -1.7600E-07   0.000       0.000      -1500.     
      4840      -1.7600E-07  2.9136E-08   0.000       0.000     
      4841      -1.7598E-07  5.8272E-08   0.000       0.000     
      4842      -1.7595E-07  8.7406E-08   0.000       0.000     
      4843      -1.7591E-07  1.1654E-07   0.000       0.000     
      4844      -1.7586E-07  1.4567E-07   0.000       0.000     
      4845      -1.7580E-07  1.7479E-07   0.000       0.000     
      4846      -1.7573E-07  2.0391E-07   0.000       0.000     
      4847      -1.7565E-07  2.3303E-07   0.000       0.000     
      4848      -1.7557E-07  2.6214E-07   0.000       0.000     
      4849      -1.7548E-07  2.9124E-07   0.000       0.000     
      4850      -1.7538E-07  3.2033E-07   0.000       0.000     
      4851      -1.7527E-07  3.4942E-07   0.000       0.000     
      4852      -1.7516E-07  3.7849E-07   0.000       0.000     
      4853      -1.7504E-07  4.0755E-07   0.000       0.000     
      4854      -1.7492E-07  4.3660E-07   0.000       0.000     
      4855      -1.7479E-07  4.6564E-07   0.000       0.000     
      4856      -1.7466E-07  4.9466E-07   0.000       0.000     
      4857      -1.7452E-07  5.2367E-07   0.000       0.000     
      4858      -1.7437E-07  5.5267E-07   0.000       0.000     
      4859      -1.7422E-07  5.8164E-07   0.000       0.000     
      4860      -1.6553E-07  5.8207E-07   0.000       0.000     
      4861      -1.5683E-07  5.8249E-07   0.000       0.000     
      4862      -1.4813E-07  5.8289E-07   0.000       0.000     
      4863      -1.3943E-07  5.8327E-07   0.000       0.000     
      4864      -1.3072E-07  5.8364E-07   0.000       0.000     
      4865      -1.2201E-07  5.8399E-07   0.000       0.000     
      4866      -1.1329E-07  5.8432E-07   0.000       0.000     
      4867      -1.0458E-07  5.8464E-07   0.000       0.000     
      4868      -9.5864E-08  5.8493E-07   0.000       0.000     
      4869      -8.7147E-08  5.8521E-07   0.000       0.000     
      4870      -7.8430E-08  5.8547E-07   0.000       0.000     
      4871      -6.9713E-08  5.8570E-07   0.000       0.000     
      4872      -6.0996E-08  5.8591E-07   0.000       0.000     
      4873      -5.2279E-08  5.8610E-07   0.000       0.000     
      4874      -4.3564E-08  5.8626E-07   0.000       0.000     
      4875      -3.4849E-08  5.8639E-07   0.000       0.000     
      4876      -2.6136E-08  5.8650E-07   0.000       0.000     
      4877      -1.7423E-08  5.8657E-07   0.000       0.000     
      4878      -8.7116E-09  5.8662E-07   0.000       0.000     
      4879        0.000      5.8663E-07  -1.347       0.000     
      4880      -1.8565E-07   0.000       0.000      -3000.     
      4882      -1.8563E-07  6.1557E-08   0.000       0.000     
      4884      -1.8556E-07  1.2311E-07   0.000       0.000     
      4886      -1.8547E-07  1.8466E-07   0.000       0.000     
      4888      -1.8534E-07  2.4619E-07   0.000       0.000     
      4890      -1.8519E-07  3.0770E-07   0.000       0.000     
      4892      -1.8501E-07  3.6919E-07   0.000       0.000     
      4894      -1.8482E-07  4.3065E-07   0.000       0.000     
      4896      -1.8461E-07  4.9207E-07   0.000       0.000     
      4898      -1.8438E-07  5.5345E-07   0.000       0.000     
      4900      -1.8413E-07  6.1479E-07   0.000       0.000     
      4902      -1.6574E-07  6.1544E-07   0.000       0.000     
      4904      -1.4733E-07  6.1606E-07   0.000       0.000     
      4906      -1.2891E-07  6.1662E-07   0.000       0.000     
      4908      -1.1049E-07  6.1713E-07   0.000       0.000     
      4910      -9.2061E-08  6.1759E-07   0.000       0.000     
      4912      -7.3638E-08  6.1799E-07   0.000       0.000     
      4914      -5.5220E-08  6.1832E-07   0.000       0.000     
      4916      -3.6808E-08  6.1856E-07   0.000       0.000     
      4918      -1.8402E-08  6.1871E-07   0.000       0.000     
      4920        0.000      6.1876E-07  -3.057       0.000     
      4921      -1.9529E-07   0.000       0.000      -1500.     
      4922      -1.9528E-07  3.2420E-08   0.000       0.000     
      4923      -1.9527E-07  6.4841E-08   0.000       0.000     
      4924      -1.9525E-07  9.7261E-08   0.000       0.000     
      4925      -1.9522E-07  1.2968E-07   0.000       0.000     
      4926      -1.9518E-07  1.6210E-07   0.000       0.000     
      4927      -1.9513E-07  1.9452E-07   0.000       0.000     
      4928      -1.9508E-07  2.2693E-07   0.000       0.000     
      4929      -1.9502E-07  2.5935E-07   0.000       0.000     
      4930      -1.9496E-07  2.9176E-07   0.000       0.000     
      4931      -1.9490E-07  3.2416E-07   0.000       0.000     
      4932      -1.9483E-07  3.5657E-07   0.000       0.000     
      4933      -1.9475E-07  3.8897E-07   0.000       0.000     
      4934      -1.9468E-07  4.2136E-07   0.000       0.000     
      4935      -1.9460E-07  4.5375E-07   0.000       0.000     
      4936      -1.9451E-07  4.8613E-07   0.000       0.000     
      4937      -1.9443E-07  5.1851E-07   0.000       0.000     
      4938      -1.9434E-07  5.5087E-07   0.000       0.000     
      4939      -1.9425E-07  5.8324E-07   0.000       0.000     
      4940      -1.9415E-07  6.1559E-07   0.000       0.000     
      4941      -1.9405E-07  6.4793E-07   0.000       0.000     
      4942      -1.8434E-07  6.4817E-07   0.000       0.000     
      4943      -1.7464E-07  6.4840E-07   0.000       0.000     
      4944      -1.6493E-07  6.4862E-07   0.000       0.000     
      4945      -1.5522E-07  6.4884E-07   0.000       0.000     
      4946      -1.4551E-07  6.4905E-07   0.000       0.000     
      4947      -1.3580E-07  6.4925E-07   0.000       0.000     
      4948      -1.2609E-07  6.4945E-07   0.000       0.000     
      4949      -1.1638E-07  6.4963E-07   0.000       0.000     
      4950      -1.0667E-07  6.4981E-07   0.000       0.000     
      4951      -9.6967E-08  6.4998E-07   0.000       0.000     
      4952      -8.7260E-08  6.5013E-07   0.000       0.000     
      4953      -7.7555E-08  6.5028E-07   0.000       0.000     
      4954      -6.7853E-08  6.5042E-07   0.000       0.000     
      4955      -5.8153E-08  6.5054E-07   0.000       0.000     
      4956      -4.8456E-08  6.5064E-07   0.000       0.000     
      4957      -3.8761E-08  6.5073E-07   0.000       0.000     
      4958      -2.9069E-08  6.5080E-07   0.000       0.000     
      4959      -1.9378E-08  6.5085E-07   0.000       0.000     
      4960      -9.6888E-09  6.5088E-07   0.000       0.000     
      4961        0.000      6.5089E-07  -1.737       0.000     
      4962      -2.0493E-07   0.000       0.000      -2999.     
      4964      -2.0491E-07  6.8123E-08   0.000       0.000     
      4966      -2.0487E-07  1.3625E-07   0.000       0.000     
      4968      -2.0479E-07  2.0437E-07   0.000       0.000     
      4970      -2.0471E-07  2.7250E-07   0.000       0.000     
      4972      -2.0460E-07  3.4062E-07   0.000       0.000     
      4974      -2.0449E-07  4.0874E-07   0.000       0.000     
      4976      -2.0437E-07  4.7684E-07   0.000       0.000     
      4978      -2.0424E-07  5.4494E-07   0.000       0.000     
      4980      -2.0411E-07  6.1302E-07   0.000       0.000     
      4982      -2.0396E-07  6.8108E-07   0.000       0.000     
      4984      -1.8354E-07  6.8136E-07   0.000       0.000     
      4986      -1.6312E-07  6.8163E-07   0.000       0.000     
      4988      -1.4270E-07  6.8188E-07   0.000       0.000     
      4990      -1.2228E-07  6.8213E-07   0.000       0.000     
      4992      -1.0187E-07  6.8236E-07   0.000       0.000     
      4994      -8.1464E-08  6.8257E-07   0.000       0.000     
      4996      -6.1078E-08  6.8275E-07   0.000       0.000     
      4998      -4.0707E-08  6.8290E-07   0.000       0.000     
      5000      -2.0350E-08  6.8299E-07   0.000       0.000     
      5002        0.000      6.8302E-07  -4.085       0.000     
      5003      -2.1457E-07   0.000       0.000      -749.7     
      5004      -2.1456E-07  3.5701E-08   0.000       0.000     
      5005      -2.1455E-07  7.1402E-08   0.000       0.000     
      5006      -2.1454E-07  1.0711E-07   0.000       0.000     
      5007      -2.1452E-07  1.4281E-07   0.000       0.000     
      5008      -2.1449E-07  1.7852E-07   0.000       0.000     
      5009      -2.1446E-07  2.1423E-07   0.000       0.000     
      5010      -2.1442E-07  2.4994E-07   0.000       0.000     
      5011      -2.1439E-07  2.8565E-07   0.000       0.000     
      5012      -2.1435E-07  3.2136E-07   0.000       0.000     
      5013      -2.1431E-07  3.5708E-07   0.000       0.000     
      5014      -2.1427E-07  3.9279E-07   0.000       0.000     
      5015      -2.1423E-07  4.2851E-07   0.000       0.000     
      5016      -2.1419E-07  4.6423E-07   0.000       0.000     
      5017      -2.1415E-07  4.9994E-07   0.000       0.000     
      5018      -2.1410E-07  5.3566E-07   0.000       0.000     
      5019      -2.1406E-07  5.7137E-07   0.000       0.000     
      5020      -2.1401E-07  6.0708E-07   0.000       0.000     
      5021      -2.1397E-07  6.4280E-07   0.000       0.000     
      5022      -2.1392E-07  6.7851E-07   0.000       0.000     
      5023      -2.1387E-07  7.1423E-07   0.000       0.000     
      5024      -2.0316E-07  7.1427E-07   0.000       0.000     
      5025      -1.9245E-07  7.1432E-07   0.000       0.000     
      5026      -1.8173E-07  7.1437E-07   0.000       0.000     
      5027      -1.7102E-07  7.1442E-07   0.000       0.000     
      5028      -1.6030E-07  7.1447E-07   0.000       0.000     
      5029      -1.4959E-07  7.1452E-07   0.000       0.000     
      5030      -1.3888E-07  7.1457E-07   0.000       0.000     
      5031      -1.2817E-07  7.1463E-07   0.000       0.000     
      5032      -1.1746E-07  7.1469E-07   0.000       0.000     
      5033      -1.0676E-07  7.1474E-07   0.000       0.000     
      5034      -9.6057E-08  7.1480E-07   0.000       0.000     
      5035      -8.5363E-08  7.1486E-07   0.000       0.000     
      5036      -7.4675E-08  7.1492E-07   0.000       0.000     
      5037      -6.3992E-08  7.1497E-07   0.000       0.000     
      5038      -5.3315E-08  7.1502E-07   0.000       0.000     
      5039      -4.2644E-08  7.1506E-07   0.000       0.000     
      5040      -3.1978E-08  7.1510E-07   0.000       0.000     
      5041      -2.1316E-08  7.1513E-07   0.000       0.000     
      5042      -1.0657E-08  7.1514E-07   0.000       0.000     
      5043        0.000      7.1515E-07  -1.197       0.000     

 MAXIMUM          0.000      7.1515E-07   127.3       0.000    
 AT NODE              2583        5043        2624           2

 MINIMUM        -2.1457E-07 -1.2516E-11  -27.12      -3033.    
 AT NODE              5003          39        4264        4224


          THE ANALYSIS HAS BEEN COMPLETED



                              ANALYSIS COMPLETE
                              WITH    61 WARNING MESSAGES ON THE DAT FILE



     JOB TIME SUMMARY
       USER TIME (SEC)      =   1.1000    
       SYSTEM TIME (SEC)    =  0.20000    
       TOTAL CPU TIME (SEC) =   1.3000    
       WALLCLOCK TIME (SEC) =          2
