1

  ABAQUS VERSION 6.4-1                                     DATE 23-Apr-2008   TIME 22:15:16        PAGE     1
 





    AAAAAA     BBBBBBBBB      AAAAAA      QQQQQQQQ    U        U    SSSSSSSS
   A      A    B        B    A      A    Q        Q   U        U   S
  A        A   B        B   A        A   Q        Q   U        U   S
  A        A   B        B   A        A   Q        Q   U        U   S
  AAAAAAAAAA   BBBBBBBBB    AAAAAAAAAA   Q        Q   U        U    SSSSSSSS
  A        A   B        B   A        A   Q    Q   Q   U        U            S
  A        A   B        B   A        A   Q     Q  Q   U        U            S
  A        A   B        B   A        A   Q      Q Q   U        U            S
  A        A   BBBBBBBBB    A        A    QQQQQQQQ     UUUUUUUU     SSSSSSSS
 



                      This program has been developed by
 
                                  ABAQUS, Inc.
                                1080 Main Street
                             Pawtucket, R.I. 02860
 


                   Available for internal use at University of Virginia. 
                   Support of your usage is not included in the license
                   price.  To purchase support, or send information to ABAQUS, Inc.
                   about a suspected error, please follow the procedures
                   described in the ABAQUS academic support instructions
                   document. A copy of this document has been sent to the
                   designated user at your site. Additional copies can be
                   obtained by contacting ABAQUS, Inc. or your local ABAQUS
                   representative.

                   Should you have any questions concerning the terms of
                   this academic license, please contact the designated
                   user at your university, Brad Sayler
 
                        On machine d107-02 
                        you are authorized to run
                        ABAQUS/Standard until 31-Dec-2008

                        Your site id is: 08UVA_X 


 
                    For assistance or any other information contact

                           ABAQUS, INC.
                           1080 Main Street
                           Pawtucket, RI 02860-4847
                           U.S.A.
                           Tel: (1) 401 727 4200
                           Fax: (1) 401 727 4208
                           E-mail: info@abaqus.com
                           Web: http://www.abaqus.com
                           Technical support: support@abaqus.com 


                * * * * * * * * * * * * * * * * * * * * * * * * * * * * * * 
                *                                                         * 
                *                   *****************                     * 
                *                   *  N O T I C E  *                     * 
                *                   *****************                     * 
                *                                                         * 
                *                                                         * 
                *                 ABAQUS VERSION 6.4-1                    * 
                *                                                         * 
                *          BUILD ID: 2003_09_29-11.18.28 46457            * 
                *                                                         * 
                *                                                         * 
                *  Please make sure you are using version 6.4 manuals     * 
                *  plus the notes accompanying this release.              * 
                *                                                         * 
                *                                                         * 
                *   This program may not be used for commercial purposes  * 
                *           without payment of a monthly charge.          * 
                *                                                         * 
                * * * * * * * * * * * * * * * * * * * * * * * * * * * * * * 


 



     PROCESSING PART, INSTANCE, AND ASSEMBLY INFORMATION
   *******************************************************


     END PROCESSING PART, INSTANCE, AND ASSEMBLY INFORMATION
   ***********************************************************




     OPTIONS BEING PROCESSED
   ***************************


  *Heading
          POINT LOAD: 8-noded elements                                                                                                                                                                                                                                    
  *NODE,NSET=N1
  *NODE,NSET=N1
  *NODE,NSET=N2
  *NODE,NSET=N3
  *NODE,NSET=N4
  *NODE,NSET=N5
  *NODE,NSET=N6
  *NODE,NSET=N7
  *NODE,NSET=N8
  *NODE,NSET=N9
  *NODE,NSET=N10
  *NODE,NSET=N11
  *NGEN,NSET=ARC1
  *NGEN,NSET=ARC2,LINE=C
  *NGEN,NSET=ARC3,LINE=C
  *NGEN,NSET=ARC4,LINE=C
  *NFILL,NSET=ALL, SINGULAR=1
  *NFILL,NSET=ALL, BIAS=1.000
  *NFILL,NSET=ALL, BIAS=1.000
  *NGEN,NSET=ROW1
  *NGEN,NSET=ROW1
  *NGEN,NSET=ROW1
  *NFILL,NSET=ALL, BIAS= 1.000
  *ELEMENT, ELSET=ALL, TYPE=CPS8
  *ELGEN, ELSET=ALL
  *NSET, NSET=YAXIS,GENERATE
  *NSET, NSET=YAXIS,GENERATE
  *NSET, NSET=XAXIS,GENERATE
  *MATERIAL,NAME=ALUM
  *ELASTIC
  *SOLID SECTION, ELSET=ALL, MAT=ALUM
  *BOUNDARY
  *SOLID SECTION, ELSET=ALL, MAT=ALUM
  *STEP
  *STEP
  *STEP
  *STATIC
  *BOUNDARY
  *EL PRINT
  *END STEP
  *STEP
  *STATIC
  *BOUNDARY
  *CLOAD
  *NODE PRINT
  *END STEP

 ***WARNING: ELEMENT 1 HAS AN ASPECT RATIO EXCEEDING 100 TO 1.

 ***WARNING: ELEMENT 2 HAS AN ASPECT RATIO EXCEEDING 100 TO 1.

 ***WARNING: ELEMENT 3 HAS AN ASPECT RATIO EXCEEDING 100 TO 1.

 ***WARNING: ELEMENT 4 HAS AN ASPECT RATIO EXCEEDING 100 TO 1.

 ***WARNING: ELEMENT 5 HAS AN ASPECT RATIO EXCEEDING 100 TO 1.

 ***WARNING: ELEMENT 6 HAS AN ASPECT RATIO EXCEEDING 100 TO 1.

 ***WARNING: ELEMENT 7 HAS AN ASPECT RATIO EXCEEDING 100 TO 1.

 ***WARNING: ELEMENT 8 HAS AN ASPECT RATIO EXCEEDING 100 TO 1.

 ***WARNING: ELEMENT 9 HAS AN ASPECT RATIO EXCEEDING 100 TO 1.

 ***WARNING: ELEMENT 10 HAS AN ASPECT RATIO EXCEEDING 100 TO 1.

 ***WARNING: ELEMENT 11 HAS AN ASPECT RATIO EXCEEDING 100 TO 1.

 ***WARNING: ELEMENT 12 HAS AN ASPECT RATIO EXCEEDING 100 TO 1.

 ***WARNING: ELEMENT 13 HAS AN ASPECT RATIO EXCEEDING 100 TO 1.

 ***WARNING: ELEMENT 14 HAS AN ASPECT RATIO EXCEEDING 100 TO 1.

 ***WARNING: ELEMENT 15 HAS AN ASPECT RATIO EXCEEDING 100 TO 1.

 ***WARNING: ELEMENT 16 HAS AN ASPECT RATIO EXCEEDING 100 TO 1.

 ***WARNING: ELEMENT 17 HAS AN ASPECT RATIO EXCEEDING 100 TO 1.

 ***WARNING: ELEMENT 18 HAS AN ASPECT RATIO EXCEEDING 100 TO 1.

 ***WARNING: ELEMENT 19 HAS AN ASPECT RATIO EXCEEDING 100 TO 1.

 ***WARNING: ELEMENT 20 HAS AN ASPECT RATIO EXCEEDING 100 TO 1.

 ***WARNING: ELEMENT 21 HAS AN ASPECT RATIO EXCEEDING 100 TO 1.

 ***WARNING: ELEMENT 22 HAS AN ASPECT RATIO EXCEEDING 100 TO 1.

 ***WARNING: ELEMENT 23 HAS AN ASPECT RATIO EXCEEDING 100 TO 1.

 ***WARNING: ELEMENT 24 HAS AN ASPECT RATIO EXCEEDING 100 TO 1.

 ***WARNING: ELEMENT 25 HAS AN ASPECT RATIO EXCEEDING 100 TO 1.

 ***WARNING: ELEMENT 26 HAS AN ASPECT RATIO EXCEEDING 100 TO 1.

 ***WARNING: ELEMENT 27 HAS AN ASPECT RATIO EXCEEDING 100 TO 1.

 ***WARNING: ELEMENT 28 HAS AN ASPECT RATIO EXCEEDING 100 TO 1.

 ***WARNING: ELEMENT 29 HAS AN ASPECT RATIO EXCEEDING 100 TO 1.

 ***WARNING: ELEMENT 30 HAS AN ASPECT RATIO EXCEEDING 100 TO 1.

 ***WARNING: ELEMENT 31 HAS AN ASPECT RATIO EXCEEDING 100 TO 1.

 ***WARNING: ELEMENT 32 HAS AN ASPECT RATIO EXCEEDING 100 TO 1.

 ***WARNING: ELEMENT 33 HAS AN ASPECT RATIO EXCEEDING 100 TO 1.

 ***WARNING: ELEMENT 34 HAS AN ASPECT RATIO EXCEEDING 100 TO 1.

 ***WARNING: ELEMENT 35 HAS AN ASPECT RATIO EXCEEDING 100 TO 1.

 ***WARNING: ELEMENT 36 HAS AN ASPECT RATIO EXCEEDING 100 TO 1.

 ***WARNING: ELEMENT 37 HAS AN ASPECT RATIO EXCEEDING 100 TO 1.

 ***WARNING: ELEMENT 38 HAS AN ASPECT RATIO EXCEEDING 100 TO 1.

 ***WARNING: ELEMENT 39 HAS AN ASPECT RATIO EXCEEDING 100 TO 1.

 ***WARNING: ELEMENT 40 HAS AN ASPECT RATIO EXCEEDING 100 TO 1.

 ***WARNING: ELEMENT 41 HAS AN ASPECT RATIO EXCEEDING 100 TO 1.

 ***WARNING: ELEMENT 42 HAS AN ASPECT RATIO EXCEEDING 100 TO 1.

 ***WARNING: ELEMENT 43 HAS AN ASPECT RATIO EXCEEDING 100 TO 1.

 ***WARNING: ELEMENT 44 HAS AN ASPECT RATIO EXCEEDING 100 TO 1.

 ***WARNING: ELEMENT 45 HAS AN ASPECT RATIO EXCEEDING 100 TO 1.

 ***WARNING: ELEMENT 46 HAS AN ASPECT RATIO EXCEEDING 100 TO 1.

 ***WARNING: ELEMENT 47 HAS AN ASPECT RATIO EXCEEDING 100 TO 1.

 ***WARNING: ELEMENT 48 HAS AN ASPECT RATIO EXCEEDING 100 TO 1.

 ***WARNING: ELEMENT 49 HAS AN ASPECT RATIO EXCEEDING 100 TO 1.

 ***WARNING: ELEMENT 50 HAS AN ASPECT RATIO EXCEEDING 100 TO 1.

 ***WARNING: ELEMENT 51 HAS AN ASPECT RATIO EXCEEDING 100 TO 1.

 ***WARNING: ELEMENT 52 HAS AN ASPECT RATIO EXCEEDING 100 TO 1.

 ***WARNING: ELEMENT 53 HAS AN ASPECT RATIO EXCEEDING 100 TO 1.

 ***WARNING: ELEMENT 54 HAS AN ASPECT RATIO EXCEEDING 100 TO 1.

 ***WARNING: ELEMENT 55 HAS AN ASPECT RATIO EXCEEDING 100 TO 1.

 ***WARNING: ELEMENT 56 HAS AN ASPECT RATIO EXCEEDING 100 TO 1.

 ***WARNING: ELEMENT 57 HAS AN ASPECT RATIO EXCEEDING 100 TO 1.

 ***WARNING: ELEMENT 58 HAS AN ASPECT RATIO EXCEEDING 100 TO 1.

 ***WARNING: ELEMENT 59 HAS AN ASPECT RATIO EXCEEDING 100 TO 1.

 ***WARNING: ELEMENT 60 HAS AN ASPECT RATIO EXCEEDING 100 TO 1.

 ***WARNING: ELEMENT 61 HAS AN ASPECT RATIO EXCEEDING 100 TO 1.

 ***WARNING: ELEMENT 62 HAS AN ASPECT RATIO EXCEEDING 100 TO 1.

 ***WARNING: ELEMENT 63 HAS AN ASPECT RATIO EXCEEDING 100 TO 1.

 ***WARNING: ELEMENT 64 HAS AN ASPECT RATIO EXCEEDING 100 TO 1.

 ***WARNING: ELEMENT 65 HAS AN ASPECT RATIO EXCEEDING 100 TO 1.

 ***WARNING: ELEMENT 66 HAS AN ASPECT RATIO EXCEEDING 100 TO 1.

 ***WARNING: ELEMENT 67 HAS AN ASPECT RATIO EXCEEDING 100 TO 1.

 ***WARNING: ELEMENT 68 HAS AN ASPECT RATIO EXCEEDING 100 TO 1.

 ***WARNING: ELEMENT 69 HAS AN ASPECT RATIO EXCEEDING 100 TO 1.

 ***WARNING: ELEMENT 70 HAS AN ASPECT RATIO EXCEEDING 100 TO 1.

 ***WARNING: ELEMENT 71 HAS AN ASPECT RATIO EXCEEDING 100 TO 1.

 ***WARNING: ELEMENT 72 HAS AN ASPECT RATIO EXCEEDING 100 TO 1.

 ***WARNING: ELEMENT 73 HAS AN ASPECT RATIO EXCEEDING 100 TO 1.

 ***WARNING: ELEMENT 74 HAS AN ASPECT RATIO EXCEEDING 100 TO 1.

 ***WARNING: ELEMENT 75 HAS AN ASPECT RATIO EXCEEDING 100 TO 1.

 ***WARNING: ELEMENT 76 HAS AN ASPECT RATIO EXCEEDING 100 TO 1.

 ***WARNING: ELEMENT 77 HAS AN ASPECT RATIO EXCEEDING 100 TO 1.

 ***WARNING: ELEMENT 78 HAS AN ASPECT RATIO EXCEEDING 100 TO 1.

 ***WARNING: ELEMENT 79 HAS AN ASPECT RATIO EXCEEDING 100 TO 1.

 ***WARNING: ELEMENT 80 HAS AN ASPECT RATIO EXCEEDING 100 TO 1.

 ***WARNING: ELEMENT 1887 IS DISTORTED: ANGLE BETWEEN ISOPARAMETRIC LINES IS 
             LESS THAN 45 OR GREATER THAN 135 DEG.  THE MIN/MAX ANGLE IS 44.561 
             DEG.

 ***WARNING: ELEMENT 1888 IS DISTORTED: ANGLE BETWEEN ISOPARAMETRIC LINES IS 
             LESS THAN 45 OR GREATER THAN 135 DEG.  THE MIN/MAX ANGLE IS 43.694 
             DEG.

 ***WARNING: ELEMENT 1889 IS DISTORTED: ANGLE BETWEEN ISOPARAMETRIC LINES IS 
             LESS THAN 45 OR GREATER THAN 135 DEG.  THE MIN/MAX ANGLE IS 43.400 
             DEG.

 ***WARNING: ELEMENT 1890 IS DISTORTED: ANGLE BETWEEN ISOPARAMETRIC LINES IS 
             LESS THAN 45 OR GREATER THAN 135 DEG.  THE MIN/MAX ANGLE IS 43.397 
             DEG.

 ***WARNING: ELEMENT 1911 IS DISTORTED: ANGLE BETWEEN ISOPARAMETRIC LINES IS 
             LESS THAN 45 OR GREATER THAN 135 DEG.  THE MIN/MAX ANGLE IS 43.397 
             DEG.

 ***WARNING: ELEMENT 1912 IS DISTORTED: ANGLE BETWEEN ISOPARAMETRIC LINES IS 
             LESS THAN 45 OR GREATER THAN 135 DEG.  THE MIN/MAX ANGLE IS 43.400 
             DEG.

 ***WARNING: ELEMENT 1913 IS DISTORTED: ANGLE BETWEEN ISOPARAMETRIC LINES IS 
             LESS THAN 45 OR GREATER THAN 135 DEG.  THE MIN/MAX ANGLE IS 43.694 
             DEG.

 ***WARNING: ELEMENT 1914 IS DISTORTED: ANGLE BETWEEN ISOPARAMETRIC LINES IS 
             LESS THAN 45 OR GREATER THAN 135 DEG.  THE MIN/MAX ANGLE IS 44.561 
             DEG.

 ***WARNING: ELEMENT 1927 IS DISTORTED: ANGLE BETWEEN ISOPARAMETRIC LINES IS 
             LESS THAN 45 OR GREATER THAN 135 DEG.  THE MIN/MAX ANGLE IS 43.325 
             DEG.

 ***WARNING: ELEMENT 1928 IS DISTORTED: ANGLE BETWEEN ISOPARAMETRIC LINES IS 
             LESS THAN 45 OR GREATER THAN 135 DEG.  THE MIN/MAX ANGLE IS 42.268 
             DEG.

 ***WARNING: ELEMENT 1929 IS DISTORTED: ANGLE BETWEEN ISOPARAMETRIC LINES IS 
             LESS THAN 45 OR GREATER THAN 135 DEG.  THE MIN/MAX ANGLE IS 41.779 
             DEG.

 ***WARNING: ELEMENT 1930 IS DISTORTED: ANGLE BETWEEN ISOPARAMETRIC LINES IS 
             LESS THAN 45 OR GREATER THAN 135 DEG.  THE MIN/MAX ANGLE IS 41.690 
             DEG.

 ***WARNING: ELEMENT 1951 IS DISTORTED: ANGLE BETWEEN ISOPARAMETRIC LINES IS 
             LESS THAN 45 OR GREATER THAN 135 DEG.  THE MIN/MAX ANGLE IS 41.690 
             DEG.

 ***WARNING: ELEMENT 1952 IS DISTORTED: ANGLE BETWEEN ISOPARAMETRIC LINES IS 
             LESS THAN 45 OR GREATER THAN 135 DEG.  THE MIN/MAX ANGLE IS 41.779 
             DEG.

 ***WARNING: ELEMENT 1953 IS DISTORTED: ANGLE BETWEEN ISOPARAMETRIC LINES IS 
             LESS THAN 45 OR GREATER THAN 135 DEG.  THE MIN/MAX ANGLE IS 42.268 
             DEG.

 ***WARNING: ELEMENT 1954 IS DISTORTED: ANGLE BETWEEN ISOPARAMETRIC LINES IS 
             LESS THAN 45 OR GREATER THAN 135 DEG.  THE MIN/MAX ANGLE IS 43.325 
             DEG.

 ***WARNING: ELEMENT 1966 IS DISTORTED: ANGLE BETWEEN ISOPARAMETRIC LINES IS 
             LESS THAN 45 OR GREATER THAN 135 DEG.  THE MIN/MAX ANGLE IS 44.234 
             DEG.

 ***WARNING: ELEMENT 1967 IS DISTORTED: ANGLE BETWEEN ISOPARAMETRIC LINES IS 
             LESS THAN 45 OR GREATER THAN 135 DEG.  THE MIN/MAX ANGLE IS 42.241 
             DEG.

 ***WARNING: ELEMENT 1968 IS DISTORTED: ANGLE BETWEEN ISOPARAMETRIC LINES IS 
             LESS THAN 45 OR GREATER THAN 135 DEG.  THE MIN/MAX ANGLE IS 41.018 
             DEG.

 ***WARNING: ELEMENT 1969 IS DISTORTED: ANGLE BETWEEN ISOPARAMETRIC LINES IS 
             LESS THAN 45 OR GREATER THAN 135 DEG.  THE MIN/MAX ANGLE IS 40.360 
             DEG.

 ***WARNING: ELEMENT 1970 IS DISTORTED: ANGLE BETWEEN ISOPARAMETRIC LINES IS 
             LESS THAN 45 OR GREATER THAN 135 DEG.  THE MIN/MAX ANGLE IS 40.120 
             DEG.

 ***WARNING: ELEMENT 1991 IS DISTORTED: ANGLE BETWEEN ISOPARAMETRIC LINES IS 
             LESS THAN 45 OR GREATER THAN 135 DEG.  THE MIN/MAX ANGLE IS 40.120 
             DEG.

 ***WARNING: ELEMENT 1992 IS DISTORTED: ANGLE BETWEEN ISOPARAMETRIC LINES IS 
             LESS THAN 45 OR GREATER THAN 135 DEG.  THE MIN/MAX ANGLE IS 40.360 
             DEG.

 ***WARNING: ELEMENT 1993 IS DISTORTED: ANGLE BETWEEN ISOPARAMETRIC LINES IS 
             LESS THAN 45 OR GREATER THAN 135 DEG.  THE MIN/MAX ANGLE IS 41.018 
             DEG.

 ***WARNING: ELEMENT 1994 IS DISTORTED: ANGLE BETWEEN ISOPARAMETRIC LINES IS 
             LESS THAN 45 OR GREATER THAN 135 DEG.  THE MIN/MAX ANGLE IS 42.241 
             DEG.

 ***WARNING: ELEMENT 1995 IS DISTORTED: ANGLE BETWEEN ISOPARAMETRIC LINES IS 
             LESS THAN 45 OR GREATER THAN 135 DEG.  THE MIN/MAX ANGLE IS 44.234 
             DEG.

 ***WARNING: ELEMENT 2006 IS DISTORTED: ANGLE BETWEEN ISOPARAMETRIC LINES IS 
             LESS THAN 45 OR GREATER THAN 135 DEG.  THE MIN/MAX ANGLE IS 43.420 
             DEG.

 ***WARNING: ELEMENT 2007 IS DISTORTED: ANGLE BETWEEN ISOPARAMETRIC LINES IS 
             LESS THAN 45 OR GREATER THAN 135 DEG.  THE MIN/MAX ANGLE IS 41.284 
             DEG.

 ***WARNING: ELEMENT 2008 IS DISTORTED: ANGLE BETWEEN ISOPARAMETRIC LINES IS 
             LESS THAN 45 OR GREATER THAN 135 DEG.  THE MIN/MAX ANGLE IS 39.915 
             DEG.

 ***WARNING: ELEMENT 2009 IS DISTORTED: ANGLE BETWEEN ISOPARAMETRIC LINES IS 
             LESS THAN 45 OR GREATER THAN 135 DEG.  THE MIN/MAX ANGLE IS 39.109 
             DEG.

 ***WARNING: ELEMENT 2010 IS DISTORTED: ANGLE BETWEEN ISOPARAMETRIC LINES IS 
             LESS THAN 45 OR GREATER THAN 135 DEG.  THE MIN/MAX ANGLE IS 38.717 
             DEG.

 ***WARNING: ELEMENT 2031 IS DISTORTED: ANGLE BETWEEN ISOPARAMETRIC LINES IS 
             LESS THAN 45 OR GREATER THAN 135 DEG.  THE MIN/MAX ANGLE IS 38.717 
             DEG.

 ***WARNING: ELEMENT 2032 IS DISTORTED: ANGLE BETWEEN ISOPARAMETRIC LINES IS 
             LESS THAN 45 OR GREATER THAN 135 DEG.  THE MIN/MAX ANGLE IS 39.109 
             DEG.

 ***WARNING: ELEMENT 2033 IS DISTORTED: ANGLE BETWEEN ISOPARAMETRIC LINES IS 
             LESS THAN 45 OR GREATER THAN 135 DEG.  THE MIN/MAX ANGLE IS 39.915 
             DEG.

 ***WARNING: ELEMENT 2034 IS DISTORTED: ANGLE BETWEEN ISOPARAMETRIC LINES IS 
             LESS THAN 45 OR GREATER THAN 135 DEG.  THE MIN/MAX ANGLE IS 41.284 
             DEG.

 ***WARNING: ELEMENT 2035 IS DISTORTED: ANGLE BETWEEN ISOPARAMETRIC LINES IS 
             LESS THAN 45 OR GREATER THAN 135 DEG.  THE MIN/MAX ANGLE IS 43.420 
             DEG.

 ***WARNING: ELEMENT 2046 IS DISTORTED: ANGLE BETWEEN ISOPARAMETRIC LINES IS 
             LESS THAN 45 OR GREATER THAN 135 DEG.  THE MIN/MAX ANGLE IS 42.695 
             DEG.

 ***WARNING: ELEMENT 2047 IS DISTORTED: ANGLE BETWEEN ISOPARAMETRIC LINES IS 
             LESS THAN 45 OR GREATER THAN 135 DEG.  THE MIN/MAX ANGLE IS 40.433 
             DEG.

 ***WARNING: ELEMENT 2048 IS DISTORTED: ANGLE BETWEEN ISOPARAMETRIC LINES IS 
             LESS THAN 45 OR GREATER THAN 135 DEG.  THE MIN/MAX ANGLE IS 38.936 
             DEG.

 ***WARNING: ELEMENT 2049 IS DISTORTED: ANGLE BETWEEN ISOPARAMETRIC LINES IS 
             LESS THAN 45 OR GREATER THAN 135 DEG.  THE MIN/MAX ANGLE IS 37.999 
             DEG.

 ***WARNING: ELEMENT 2050 IS DISTORTED: ANGLE BETWEEN ISOPARAMETRIC LINES IS 
             LESS THAN 45 OR GREATER THAN 135 DEG.  THE MIN/MAX ANGLE IS 37.474 
             DEG.

 ***WARNING: ELEMENT 2071 IS DISTORTED: ANGLE BETWEEN ISOPARAMETRIC LINES IS 
             LESS THAN 45 OR GREATER THAN 135 DEG.  THE MIN/MAX ANGLE IS 37.474 
             DEG.

 ***WARNING: ELEMENT 2072 IS DISTORTED: ANGLE BETWEEN ISOPARAMETRIC LINES IS 
             LESS THAN 45 OR GREATER THAN 135 DEG.  THE MIN/MAX ANGLE IS 37.999 
             DEG.

 ***WARNING: ELEMENT 2073 IS DISTORTED: ANGLE BETWEEN ISOPARAMETRIC LINES IS 
             LESS THAN 45 OR GREATER THAN 135 DEG.  THE MIN/MAX ANGLE IS 38.936 
             DEG.

 ***WARNING: ELEMENT 2074 IS DISTORTED: ANGLE BETWEEN ISOPARAMETRIC LINES IS 
             LESS THAN 45 OR GREATER THAN 135 DEG.  THE MIN/MAX ANGLE IS 40.433 
             DEG.

 ***WARNING: ELEMENT 2075 IS DISTORTED: ANGLE BETWEEN ISOPARAMETRIC LINES IS 
             LESS THAN 45 OR GREATER THAN 135 DEG.  THE MIN/MAX ANGLE IS 42.695 
             DEG.

 ***WARNING: ELEMENT 2086 IS DISTORTED: ANGLE BETWEEN ISOPARAMETRIC LINES IS 
             LESS THAN 45 OR GREATER THAN 135 DEG.  THE MIN/MAX ANGLE IS 42.047 
             DEG.

 ***WARNING: ELEMENT 2087 IS DISTORTED: ANGLE BETWEEN ISOPARAMETRIC LINES IS 
             LESS THAN 45 OR GREATER THAN 135 DEG.  THE MIN/MAX ANGLE IS 39.672 
             DEG.

 ***WARNING: ELEMENT 2088 IS DISTORTED: ANGLE BETWEEN ISOPARAMETRIC LINES IS 
             LESS THAN 45 OR GREATER THAN 135 DEG.  THE MIN/MAX ANGLE IS 38.061 
             DEG.

 ***WARNING: ELEMENT 2089 IS DISTORTED: ANGLE BETWEEN ISOPARAMETRIC LINES IS 
             LESS THAN 45 OR GREATER THAN 135 DEG.  THE MIN/MAX ANGLE IS 37.008 
             DEG.

 ***WARNING: ELEMENT 2090 IS DISTORTED: ANGLE BETWEEN ISOPARAMETRIC LINES IS 
             LESS THAN 45 OR GREATER THAN 135 DEG.  THE MIN/MAX ANGLE IS 36.366 
             DEG.

 ***WARNING: ELEMENT 2111 IS DISTORTED: ANGLE BETWEEN ISOPARAMETRIC LINES IS 
             LESS THAN 45 OR GREATER THAN 135 DEG.  THE MIN/MAX ANGLE IS 36.366 
             DEG.

 ***WARNING: ELEMENT 2112 IS DISTORTED: ANGLE BETWEEN ISOPARAMETRIC LINES IS 
             LESS THAN 45 OR GREATER THAN 135 DEG.  THE MIN/MAX ANGLE IS 37.008 
             DEG.

 ***WARNING: ELEMENT 2113 IS DISTORTED: ANGLE BETWEEN ISOPARAMETRIC LINES IS 
             LESS THAN 45 OR GREATER THAN 135 DEG.  THE MIN/MAX ANGLE IS 38.061 
             DEG.

 ***WARNING: ELEMENT 2114 IS DISTORTED: ANGLE BETWEEN ISOPARAMETRIC LINES IS 
             LESS THAN 45 OR GREATER THAN 135 DEG.  THE MIN/MAX ANGLE IS 39.672 
             DEG.

 ***WARNING: ELEMENT 2115 IS DISTORTED: ANGLE BETWEEN ISOPARAMETRIC LINES IS 
             LESS THAN 45 OR GREATER THAN 135 DEG.  THE MIN/MAX ANGLE IS 42.047 
             DEG.

 ***WARNING: ELEMENT 2125 IS DISTORTED: ANGLE BETWEEN ISOPARAMETRIC LINES IS 
             LESS THAN 45 OR GREATER THAN 135 DEG.  THE MIN/MAX ANGLE IS 44.992 
             DEG.

 ***WARNING: ELEMENT 2126 IS DISTORTED: ANGLE BETWEEN ISOPARAMETRIC LINES IS 
             LESS THAN 45 OR GREATER THAN 135 DEG.  THE MIN/MAX ANGLE IS 41.464 
             DEG.

 ***WARNING: ELEMENT 2127 IS DISTORTED: ANGLE BETWEEN ISOPARAMETRIC LINES IS 
             LESS THAN 45 OR GREATER THAN 135 DEG.  THE MIN/MAX ANGLE IS 38.987 
             DEG.

 ***WARNING: ELEMENT 2128 IS DISTORTED: ANGLE BETWEEN ISOPARAMETRIC LINES IS 
             LESS THAN 45 OR GREATER THAN 135 DEG.  THE MIN/MAX ANGLE IS 37.274 
             DEG.

 ***WARNING: ELEMENT 2129 IS DISTORTED: ANGLE BETWEEN ISOPARAMETRIC LINES IS 
             LESS THAN 45 OR GREATER THAN 135 DEG.  THE MIN/MAX ANGLE IS 36.118 
             DEG.

 ***WARNING: ELEMENT 2130 IS DISTORTED: ANGLE BETWEEN ISOPARAMETRIC LINES IS 
             LESS THAN 45 OR GREATER THAN 135 DEG.  THE MIN/MAX ANGLE IS 35.372 
             DEG.

 ***WARNING: ELEMENT 2151 IS DISTORTED: ANGLE BETWEEN ISOPARAMETRIC LINES IS 
             LESS THAN 45 OR GREATER THAN 135 DEG.  THE MIN/MAX ANGLE IS 35.372 
             DEG.

 ***WARNING: ELEMENT 2152 IS DISTORTED: ANGLE BETWEEN ISOPARAMETRIC LINES IS 
             LESS THAN 45 OR GREATER THAN 135 DEG.  THE MIN/MAX ANGLE IS 36.118 
             DEG.

 ***WARNING: ELEMENT 2153 IS DISTORTED: ANGLE BETWEEN ISOPARAMETRIC LINES IS 
             LESS THAN 45 OR GREATER THAN 135 DEG.  THE MIN/MAX ANGLE IS 37.274 
             DEG.

 ***WARNING: ELEMENT 2154 IS DISTORTED: ANGLE BETWEEN ISOPARAMETRIC LINES IS 
             LESS THAN 45 OR GREATER THAN 135 DEG.  THE MIN/MAX ANGLE IS 38.987 
             DEG.

 ***WARNING: ELEMENT 2155 IS DISTORTED: ANGLE BETWEEN ISOPARAMETRIC LINES IS 
             LESS THAN 45 OR GREATER THAN 135 DEG.  THE MIN/MAX ANGLE IS 41.464 
             DEG.

 ***WARNING: ELEMENT 2156 IS DISTORTED: ANGLE BETWEEN ISOPARAMETRIC LINES IS 
             LESS THAN 45 OR GREATER THAN 135 DEG.  THE MIN/MAX ANGLE IS 44.992 
             DEG.

 ***WARNING: ELEMENT 2165 IS DISTORTED: ANGLE BETWEEN ISOPARAMETRIC LINES IS 
             LESS THAN 45 OR GREATER THAN 135 DEG.  THE MIN/MAX ANGLE IS 44.554 
             DEG.

 ***WARNING: ELEMENT 2166 IS DISTORTED: ANGLE BETWEEN ISOPARAMETRIC LINES IS 
             LESS THAN 45 OR GREATER THAN 135 DEG.  THE MIN/MAX ANGLE IS 40.936 
             DEG.

 ***WARNING: ELEMENT 2167 IS DISTORTED: ANGLE BETWEEN ISOPARAMETRIC LINES IS 
             LESS THAN 45 OR GREATER THAN 135 DEG.  THE MIN/MAX ANGLE IS 38.368 
             DEG.

 ***WARNING: ELEMENT 2168 IS DISTORTED: ANGLE BETWEEN ISOPARAMETRIC LINES IS 
             LESS THAN 45 OR GREATER THAN 135 DEG.  THE MIN/MAX ANGLE IS 36.564 
             DEG.

 ***WARNING: ELEMENT 2169 IS DISTORTED: ANGLE BETWEEN ISOPARAMETRIC LINES IS 
             LESS THAN 45 OR GREATER THAN 135 DEG.  THE MIN/MAX ANGLE IS 35.316 
             DEG.

 ***WARNING: ELEMENT 2170 IS DISTORTED: ANGLE BETWEEN ISOPARAMETRIC LINES IS 
             LESS THAN 45 OR GREATER THAN 135 DEG.  THE MIN/MAX ANGLE IS 34.477 
             DEG.

 ***WARNING: ELEMENT 2191 IS DISTORTED: ANGLE BETWEEN ISOPARAMETRIC LINES IS 
             LESS THAN 45 OR GREATER THAN 135 DEG.  THE MIN/MAX ANGLE IS 34.477 
             DEG.

 ***WARNING: ELEMENT 2192 IS DISTORTED: ANGLE BETWEEN ISOPARAMETRIC LINES IS 
             LESS THAN 45 OR GREATER THAN 135 DEG.  THE MIN/MAX ANGLE IS 35.316 
             DEG.

 ***WARNING: ELEMENT 2193 IS DISTORTED: ANGLE BETWEEN ISOPARAMETRIC LINES IS 
             LESS THAN 45 OR GREATER THAN 135 DEG.  THE MIN/MAX ANGLE IS 36.564 
             DEG.

 ***WARNING: ELEMENT 2194 IS DISTORTED: ANGLE BETWEEN ISOPARAMETRIC LINES IS 
             LESS THAN 45 OR GREATER THAN 135 DEG.  THE MIN/MAX ANGLE IS 38.368 
             DEG.

 ***WARNING: ELEMENT 2195 IS DISTORTED: ANGLE BETWEEN ISOPARAMETRIC LINES IS 
             LESS THAN 45 OR GREATER THAN 135 DEG.  THE MIN/MAX ANGLE IS 40.936 
             DEG.

 ***WARNING: ELEMENT 2196 IS DISTORTED: ANGLE BETWEEN ISOPARAMETRIC LINES IS 
             LESS THAN 45 OR GREATER THAN 135 DEG.  THE MIN/MAX ANGLE IS 44.554 
             DEG.

 ***WARNING: ELEMENT 2205 IS DISTORTED: ANGLE BETWEEN ISOPARAMETRIC LINES IS 
             LESS THAN 45 OR GREATER THAN 135 DEG.  THE MIN/MAX ANGLE IS 44.156 
             DEG.

 ***WARNING: ELEMENT 2206 IS DISTORTED: ANGLE BETWEEN ISOPARAMETRIC LINES IS 
             LESS THAN 45 OR GREATER THAN 135 DEG.  THE MIN/MAX ANGLE IS 40.456 
             DEG.

 ***WARNING: ELEMENT 2207 IS DISTORTED: ANGLE BETWEEN ISOPARAMETRIC LINES IS 
             LESS THAN 45 OR GREATER THAN 135 DEG.  THE MIN/MAX ANGLE IS 37.806 
             DEG.

 ***WARNING: ELEMENT 2208 IS DISTORTED: ANGLE BETWEEN ISOPARAMETRIC LINES IS 
             LESS THAN 45 OR GREATER THAN 135 DEG.  THE MIN/MAX ANGLE IS 35.919 
             DEG.

 ***WARNING: ELEMENT 2209 IS DISTORTED: ANGLE BETWEEN ISOPARAMETRIC LINES IS 
             LESS THAN 45 OR GREATER THAN 135 DEG.  THE MIN/MAX ANGLE IS 34.588 
             DEG.

 ***WARNING: ELEMENT 2210 IS DISTORTED: ANGLE BETWEEN ISOPARAMETRIC LINES IS 
             LESS THAN 45 OR GREATER THAN 135 DEG.  THE MIN/MAX ANGLE IS 33.666 
             DEG.

 ***WARNING: ELEMENT 2231 IS DISTORTED: ANGLE BETWEEN ISOPARAMETRIC LINES IS 
             LESS THAN 45 OR GREATER THAN 135 DEG.  THE MIN/MAX ANGLE IS 33.666 
             DEG.

 ***WARNING: ELEMENT 2232 IS DISTORTED: ANGLE BETWEEN ISOPARAMETRIC LINES IS 
             LESS THAN 45 OR GREATER THAN 135 DEG.  THE MIN/MAX ANGLE IS 34.588 
             DEG.

 ***WARNING: ELEMENT 2233 IS DISTORTED: ANGLE BETWEEN ISOPARAMETRIC LINES IS 
             LESS THAN 45 OR GREATER THAN 135 DEG.  THE MIN/MAX ANGLE IS 35.919 
             DEG.

 ***WARNING: ELEMENT 2234 IS DISTORTED: ANGLE BETWEEN ISOPARAMETRIC LINES IS 
             LESS THAN 45 OR GREATER THAN 135 DEG.  THE MIN/MAX ANGLE IS 37.806 
             DEG.

 ***WARNING: ELEMENT 2235 IS DISTORTED: ANGLE BETWEEN ISOPARAMETRIC LINES IS 
             LESS THAN 45 OR GREATER THAN 135 DEG.  THE MIN/MAX ANGLE IS 40.456 
             DEG.

 ***WARNING: ELEMENT 2236 IS DISTORTED: ANGLE BETWEEN ISOPARAMETRIC LINES IS 
             LESS THAN 45 OR GREATER THAN 135 DEG.  THE MIN/MAX ANGLE IS 44.156 
             DEG.

 ***WARNING: ELEMENT 2245 IS DISTORTED: ANGLE BETWEEN ISOPARAMETRIC LINES IS 
             LESS THAN 45 OR GREATER THAN 135 DEG.  THE MIN/MAX ANGLE IS 43.793 
             DEG.

 ***WARNING: ELEMENT 2246 IS DISTORTED: ANGLE BETWEEN ISOPARAMETRIC LINES IS 
             LESS THAN 45 OR GREATER THAN 135 DEG.  THE MIN/MAX ANGLE IS 40.018 
             DEG.

 ***WARNING: ELEMENT 2247 IS DISTORTED: ANGLE BETWEEN ISOPARAMETRIC LINES IS 
             LESS THAN 45 OR GREATER THAN 135 DEG.  THE MIN/MAX ANGLE IS 37.293 
             DEG.

 ***WARNING: ELEMENT 2248 IS DISTORTED: ANGLE BETWEEN ISOPARAMETRIC LINES IS 
             LESS THAN 45 OR GREATER THAN 135 DEG.  THE MIN/MAX ANGLE IS 35.331 
             DEG.

 ***WARNING: ELEMENT 2249 IS DISTORTED: ANGLE BETWEEN ISOPARAMETRIC LINES IS 
             LESS THAN 45 OR GREATER THAN 135 DEG.  THE MIN/MAX ANGLE IS 33.926 
             DEG.

 ***WARNING: ELEMENT 2250 IS DISTORTED: ANGLE BETWEEN ISOPARAMETRIC LINES IS 
             LESS THAN 45 OR GREATER THAN 135 DEG.  THE MIN/MAX ANGLE IS 32.929 
             DEG.

 ***WARNING: ELEMENT 2271 IS DISTORTED: ANGLE BETWEEN ISOPARAMETRIC LINES IS 
             LESS THAN 45 OR GREATER THAN 135 DEG.  THE MIN/MAX ANGLE IS 32.929 
             DEG.

 ***WARNING: ELEMENT 2272 IS DISTORTED: ANGLE BETWEEN ISOPARAMETRIC LINES IS 
             LESS THAN 45 OR GREATER THAN 135 DEG.  THE MIN/MAX ANGLE IS 33.926 
             DEG.

 ***WARNING: ELEMENT 2273 IS DISTORTED: ANGLE BETWEEN ISOPARAMETRIC LINES IS 
             LESS THAN 45 OR GREATER THAN 135 DEG.  THE MIN/MAX ANGLE IS 35.331 
             DEG.

 ***WARNING: ELEMENT 2274 IS DISTORTED: ANGLE BETWEEN ISOPARAMETRIC LINES IS 
             LESS THAN 45 OR GREATER THAN 135 DEG.  THE MIN/MAX ANGLE IS 37.293 
             DEG.

 ***WARNING: ELEMENT 2275 IS DISTORTED: ANGLE BETWEEN ISOPARAMETRIC LINES IS 
             LESS THAN 45 OR GREATER THAN 135 DEG.  THE MIN/MAX ANGLE IS 40.018 
             DEG.

 ***WARNING: ELEMENT 2276 IS DISTORTED: ANGLE BETWEEN ISOPARAMETRIC LINES IS 
             LESS THAN 45 OR GREATER THAN 135 DEG.  THE MIN/MAX ANGLE IS 43.793 
             DEG.

 ***WARNING: ELEMENT 2285 IS DISTORTED: ANGLE BETWEEN ISOPARAMETRIC LINES IS 
             LESS THAN 45 OR GREATER THAN 135 DEG.  THE MIN/MAX ANGLE IS 43.460 
             DEG.

 ***WARNING: ELEMENT 2286 IS DISTORTED: ANGLE BETWEEN ISOPARAMETRIC LINES IS 
             LESS THAN 45 OR GREATER THAN 135 DEG.  THE MIN/MAX ANGLE IS 39.616 
             DEG.

 ***WARNING: ELEMENT 2287 IS DISTORTED: ANGLE BETWEEN ISOPARAMETRIC LINES IS 
             LESS THAN 45 OR GREATER THAN 135 DEG.  THE MIN/MAX ANGLE IS 36.824 
             DEG.

 ***WARNING: ELEMENT 2288 IS DISTORTED: ANGLE BETWEEN ISOPARAMETRIC LINES IS 
             LESS THAN 45 OR GREATER THAN 135 DEG.  THE MIN/MAX ANGLE IS 34.794 
             DEG.

 ***WARNING: ELEMENT 2289 IS DISTORTED: ANGLE BETWEEN ISOPARAMETRIC LINES IS 
             LESS THAN 45 OR GREATER THAN 135 DEG.  THE MIN/MAX ANGLE IS 33.320 
             DEG.

 ***WARNING: ELEMENT 2290 IS DISTORTED: ANGLE BETWEEN ISOPARAMETRIC LINES IS 
             LESS THAN 45 OR GREATER THAN 135 DEG.  THE MIN/MAX ANGLE IS 32.256 
             DEG.

 ***WARNING: ELEMENT 2311 IS DISTORTED: ANGLE BETWEEN ISOPARAMETRIC LINES IS 
             LESS THAN 45 OR GREATER THAN 135 DEG.  THE MIN/MAX ANGLE IS 32.256 
             DEG.

 ***WARNING: ELEMENT 2312 IS DISTORTED: ANGLE BETWEEN ISOPARAMETRIC LINES IS 
             LESS THAN 45 OR GREATER THAN 135 DEG.  THE MIN/MAX ANGLE IS 33.320 
             DEG.

 ***WARNING: ELEMENT 2313 IS DISTORTED: ANGLE BETWEEN ISOPARAMETRIC LINES IS 
             LESS THAN 45 OR GREATER THAN 135 DEG.  THE MIN/MAX ANGLE IS 34.794 
             DEG.

 ***WARNING: ELEMENT 2314 IS DISTORTED: ANGLE BETWEEN ISOPARAMETRIC LINES IS 
             LESS THAN 45 OR GREATER THAN 135 DEG.  THE MIN/MAX ANGLE IS 36.824 
             DEG.

 ***WARNING: ELEMENT 2315 IS DISTORTED: ANGLE BETWEEN ISOPARAMETRIC LINES IS 
             LESS THAN 45 OR GREATER THAN 135 DEG.  THE MIN/MAX ANGLE IS 39.616 
             DEG.

 ***WARNING: ELEMENT 2316 IS DISTORTED: ANGLE BETWEEN ISOPARAMETRIC LINES IS 
             LESS THAN 45 OR GREATER THAN 135 DEG.  THE MIN/MAX ANGLE IS 43.460 
             DEG.

 ***WARNING: ELEMENT 2325 IS DISTORTED: ANGLE BETWEEN ISOPARAMETRIC LINES IS 
             LESS THAN 45 OR GREATER THAN 135 DEG.  THE MIN/MAX ANGLE IS 43.153 
             DEG.

 ***WARNING: ELEMENT 2326 IS DISTORTED: ANGLE BETWEEN ISOPARAMETRIC LINES IS 
             LESS THAN 45 OR GREATER THAN 135 DEG.  THE MIN/MAX ANGLE IS 39.247 
             DEG.

 ***WARNING: ELEMENT 2327 IS DISTORTED: ANGLE BETWEEN ISOPARAMETRIC LINES IS 
             LESS THAN 45 OR GREATER THAN 135 DEG.  THE MIN/MAX ANGLE IS 36.392 
             DEG.

 ***WARNING: ELEMENT 2328 IS DISTORTED: ANGLE BETWEEN ISOPARAMETRIC LINES IS 
             LESS THAN 45 OR GREATER THAN 135 DEG.  THE MIN/MAX ANGLE IS 34.300 
             DEG.

 ***WARNING: ELEMENT 2329 IS DISTORTED: ANGLE BETWEEN ISOPARAMETRIC LINES IS 
             LESS THAN 45 OR GREATER THAN 135 DEG.  THE MIN/MAX ANGLE IS 32.765 
             DEG.

 ***WARNING: ELEMENT 2330 IS DISTORTED: ANGLE BETWEEN ISOPARAMETRIC LINES IS 
             LESS THAN 45 OR GREATER THAN 135 DEG.  THE MIN/MAX ANGLE IS 31.640 
             DEG.

 ***WARNING: ELEMENT 2351 IS DISTORTED: ANGLE BETWEEN ISOPARAMETRIC LINES IS 
             LESS THAN 45 OR GREATER THAN 135 DEG.  THE MIN/MAX ANGLE IS 31.640 
             DEG.

 ***WARNING: ELEMENT 2352 IS DISTORTED: ANGLE BETWEEN ISOPARAMETRIC LINES IS 
             LESS THAN 45 OR GREATER THAN 135 DEG.  THE MIN/MAX ANGLE IS 32.765 
             DEG.

 ***WARNING: ELEMENT 2353 IS DISTORTED: ANGLE BETWEEN ISOPARAMETRIC LINES IS 
             LESS THAN 45 OR GREATER THAN 135 DEG.  THE MIN/MAX ANGLE IS 34.300 
             DEG.

 ***WARNING: ELEMENT 2354 IS DISTORTED: ANGLE BETWEEN ISOPARAMETRIC LINES IS 
             LESS THAN 45 OR GREATER THAN 135 DEG.  THE MIN/MAX ANGLE IS 36.392 
             DEG.

 ***WARNING: ELEMENT 2355 IS DISTORTED: ANGLE BETWEEN ISOPARAMETRIC LINES IS 
             LESS THAN 45 OR GREATER THAN 135 DEG.  THE MIN/MAX ANGLE IS 39.247 
             DEG.

 ***WARNING: ELEMENT 2356 IS DISTORTED: ANGLE BETWEEN ISOPARAMETRIC LINES IS 
             LESS THAN 45 OR GREATER THAN 135 DEG.  THE MIN/MAX ANGLE IS 43.153 
             DEG.

 ***WARNING: ELEMENT 2365 IS DISTORTED: ANGLE BETWEEN ISOPARAMETRIC LINES IS 
             LESS THAN 45 OR GREATER THAN 135 DEG.  THE MIN/MAX ANGLE IS 42.870 
             DEG.

 ***WARNING: ELEMENT 2366 IS DISTORTED: ANGLE BETWEEN ISOPARAMETRIC LINES IS 
             LESS THAN 45 OR GREATER THAN 135 DEG.  THE MIN/MAX ANGLE IS 38.906 
             DEG.

 ***WARNING: ELEMENT 2367 IS DISTORTED: ANGLE BETWEEN ISOPARAMETRIC LINES IS 
             LESS THAN 45 OR GREATER THAN 135 DEG.  THE MIN/MAX ANGLE IS 35.995 
             DEG.

 ***WARNING: ELEMENT 2368 IS DISTORTED: ANGLE BETWEEN ISOPARAMETRIC LINES IS 
             LESS THAN 45 OR GREATER THAN 135 DEG.  THE MIN/MAX ANGLE IS 33.846 
             DEG.

 ***WARNING: ELEMENT 2369 IS DISTORTED: ANGLE BETWEEN ISOPARAMETRIC LINES IS 
             LESS THAN 45 OR GREATER THAN 135 DEG.  THE MIN/MAX ANGLE IS 32.254 
             DEG.

 ***WARNING: ELEMENT 2370 IS DISTORTED: ANGLE BETWEEN ISOPARAMETRIC LINES IS 
             LESS THAN 45 OR GREATER THAN 135 DEG.  THE MIN/MAX ANGLE IS 31.073 
             DEG.

 ***WARNING: ELEMENT 2391 IS DISTORTED: ANGLE BETWEEN ISOPARAMETRIC LINES IS 
             LESS THAN 45 OR GREATER THAN 135 DEG.  THE MIN/MAX ANGLE IS 31.073 
             DEG.

 ***WARNING: ELEMENT 2392 IS DISTORTED: ANGLE BETWEEN ISOPARAMETRIC LINES IS 
             LESS THAN 45 OR GREATER THAN 135 DEG.  THE MIN/MAX ANGLE IS 32.254 
             DEG.

 ***WARNING: ELEMENT 2393 IS DISTORTED: ANGLE BETWEEN ISOPARAMETRIC LINES IS 
             LESS THAN 45 OR GREATER THAN 135 DEG.  THE MIN/MAX ANGLE IS 33.846 
             DEG.

 ***WARNING: ELEMENT 2394 IS DISTORTED: ANGLE BETWEEN ISOPARAMETRIC LINES IS 
             LESS THAN 45 OR GREATER THAN 135 DEG.  THE MIN/MAX ANGLE IS 35.995 
             DEG.

 ***WARNING: ELEMENT 2395 IS DISTORTED: ANGLE BETWEEN ISOPARAMETRIC LINES IS 
             LESS THAN 45 OR GREATER THAN 135 DEG.  THE MIN/MAX ANGLE IS 38.906 
             DEG.

 ***WARNING: ELEMENT 2396 IS DISTORTED: ANGLE BETWEEN ISOPARAMETRIC LINES IS 
             LESS THAN 45 OR GREATER THAN 135 DEG.  THE MIN/MAX ANGLE IS 42.870 
             DEG.

 ***WARNING: ELEMENT 2405 IS DISTORTED: ANGLE BETWEEN ISOPARAMETRIC LINES IS 
             LESS THAN 45 OR GREATER THAN 135 DEG.  THE MIN/MAX ANGLE IS 42.608 
             DEG.

 ***WARNING: ELEMENT 2406 IS DISTORTED: ANGLE BETWEEN ISOPARAMETRIC LINES IS 
             LESS THAN 45 OR GREATER THAN 135 DEG.  THE MIN/MAX ANGLE IS 38.591 
             DEG.

 ***WARNING: ELEMENT 2407 IS DISTORTED: ANGLE BETWEEN ISOPARAMETRIC LINES IS 
             LESS THAN 45 OR GREATER THAN 135 DEG.  THE MIN/MAX ANGLE IS 35.627 
             DEG.

 ***WARNING: ELEMENT 2408 IS DISTORTED: ANGLE BETWEEN ISOPARAMETRIC LINES IS 
             LESS THAN 45 OR GREATER THAN 135 DEG.  THE MIN/MAX ANGLE IS 33.425 
             DEG.

 ***WARNING: ELEMENT 2409 IS DISTORTED: ANGLE BETWEEN ISOPARAMETRIC LINES IS 
             LESS THAN 45 OR GREATER THAN 135 DEG.  THE MIN/MAX ANGLE IS 31.782 
             DEG.

 ***WARNING: ELEMENT 2410 IS DISTORTED: ANGLE BETWEEN ISOPARAMETRIC LINES IS 
             LESS THAN 45 OR GREATER THAN 135 DEG.  THE MIN/MAX ANGLE IS 30.550 
             DEG.

 ***WARNING: ELEMENT 2431 IS DISTORTED: ANGLE BETWEEN ISOPARAMETRIC LINES IS 
             LESS THAN 45 OR GREATER THAN 135 DEG.  THE MIN/MAX ANGLE IS 30.550 
             DEG.

 ***WARNING: ELEMENT 2432 IS DISTORTED: ANGLE BETWEEN ISOPARAMETRIC LINES IS 
             LESS THAN 45 OR GREATER THAN 135 DEG.  THE MIN/MAX ANGLE IS 31.782 
             DEG.

 ***WARNING: ELEMENT 2433 IS DISTORTED: ANGLE BETWEEN ISOPARAMETRIC LINES IS 
             LESS THAN 45 OR GREATER THAN 135 DEG.  THE MIN/MAX ANGLE IS 33.425 
             DEG.

 ***WARNING: ELEMENT 2434 IS DISTORTED: ANGLE BETWEEN ISOPARAMETRIC LINES IS 
             LESS THAN 45 OR GREATER THAN 135 DEG.  THE MIN/MAX ANGLE IS 35.627 
             DEG.

 ***WARNING: ELEMENT 2435 IS DISTORTED: ANGLE BETWEEN ISOPARAMETRIC LINES IS 
             LESS THAN 45 OR GREATER THAN 135 DEG.  THE MIN/MAX ANGLE IS 38.591 
             DEG.

 ***WARNING: ELEMENT 2436 IS DISTORTED: ANGLE BETWEEN ISOPARAMETRIC LINES IS 
             LESS THAN 45 OR GREATER THAN 135 DEG.  THE MIN/MAX ANGLE IS 42.608 
             DEG.

 ***WARNING: ELEMENT 2445 IS DISTORTED: ANGLE BETWEEN ISOPARAMETRIC LINES IS 
             LESS THAN 45 OR GREATER THAN 135 DEG.  THE MIN/MAX ANGLE IS 42.364 
             DEG.

 ***WARNING: ELEMENT 2446 IS DISTORTED: ANGLE BETWEEN ISOPARAMETRIC LINES IS 
             LESS THAN 45 OR GREATER THAN 135 DEG.  THE MIN/MAX ANGLE IS 38.299 
             DEG.

 ***WARNING: ELEMENT 2447 IS DISTORTED: ANGLE BETWEEN ISOPARAMETRIC LINES IS 
             LESS THAN 45 OR GREATER THAN 135 DEG.  THE MIN/MAX ANGLE IS 35.285 
             DEG.

 ***WARNING: ELEMENT 2448 IS DISTORTED: ANGLE BETWEEN ISOPARAMETRIC LINES IS 
             LESS THAN 45 OR GREATER THAN 135 DEG.  THE MIN/MAX ANGLE IS 33.036 
             DEG.

 ***WARNING: ELEMENT 2449 IS DISTORTED: ANGLE BETWEEN ISOPARAMETRIC LINES IS 
             LESS THAN 45 OR GREATER THAN 135 DEG.  THE MIN/MAX ANGLE IS 31.345 
             DEG.

 ***WARNING: ELEMENT 2450 IS DISTORTED: ANGLE BETWEEN ISOPARAMETRIC LINES IS 
             LESS THAN 45 OR GREATER THAN 135 DEG.  THE MIN/MAX ANGLE IS 30.066 
             DEG.

 ***WARNING: ELEMENT 2471 IS DISTORTED: ANGLE BETWEEN ISOPARAMETRIC LINES IS 
             LESS THAN 45 OR GREATER THAN 135 DEG.  THE MIN/MAX ANGLE IS 30.066 
             DEG.

 ***WARNING: ELEMENT 2472 IS DISTORTED: ANGLE BETWEEN ISOPARAMETRIC LINES IS 
             LESS THAN 45 OR GREATER THAN 135 DEG.  THE MIN/MAX ANGLE IS 31.345 
             DEG.

 ***WARNING: ELEMENT 2473 IS DISTORTED: ANGLE BETWEEN ISOPARAMETRIC LINES IS 
             LESS THAN 45 OR GREATER THAN 135 DEG.  THE MIN/MAX ANGLE IS 33.036 
             DEG.

 ***WARNING: ELEMENT 2474 IS DISTORTED: ANGLE BETWEEN ISOPARAMETRIC LINES IS 
             LESS THAN 45 OR GREATER THAN 135 DEG.  THE MIN/MAX ANGLE IS 35.285 
             DEG.

 ***WARNING: ELEMENT 2475 IS DISTORTED: ANGLE BETWEEN ISOPARAMETRIC LINES IS 
             LESS THAN 45 OR GREATER THAN 135 DEG.  THE MIN/MAX ANGLE IS 38.299 
             DEG.

 ***WARNING: ELEMENT 2476 IS DISTORTED: ANGLE BETWEEN ISOPARAMETRIC LINES IS 
             LESS THAN 45 OR GREATER THAN 135 DEG.  THE MIN/MAX ANGLE IS 42.364 
             DEG.

 ***WARNING: ELEMENT 2485 IS DISTORTED: ANGLE BETWEEN ISOPARAMETRIC LINES IS 
             LESS THAN 45 OR GREATER THAN 135 DEG.  THE MIN/MAX ANGLE IS 42.138 
             DEG.

 ***WARNING: ELEMENT 2486 IS DISTORTED: ANGLE BETWEEN ISOPARAMETRIC LINES IS 
             LESS THAN 45 OR GREATER THAN 135 DEG.  THE MIN/MAX ANGLE IS 38.026 
             DEG.

 ***WARNING: ELEMENT 2487 IS DISTORTED: ANGLE BETWEEN ISOPARAMETRIC LINES IS 
             LESS THAN 45 OR GREATER THAN 135 DEG.  THE MIN/MAX ANGLE IS 34.968 
             DEG.

 ***WARNING: ELEMENT 2488 IS DISTORTED: ANGLE BETWEEN ISOPARAMETRIC LINES IS 
             LESS THAN 45 OR GREATER THAN 135 DEG.  THE MIN/MAX ANGLE IS 32.674 
             DEG.

 ***WARNING: ELEMENT 2489 IS DISTORTED: ANGLE BETWEEN ISOPARAMETRIC LINES IS 
             LESS THAN 45 OR GREATER THAN 135 DEG.  THE MIN/MAX ANGLE IS 30.939 
             DEG.

 ***WARNING: ELEMENT 2490 IS DISTORTED: ANGLE BETWEEN ISOPARAMETRIC LINES IS 
             LESS THAN 45 OR GREATER THAN 135 DEG.  THE MIN/MAX ANGLE IS 29.617 
             DEG.

 ***WARNING: ELEMENT 2511 IS DISTORTED: ANGLE BETWEEN ISOPARAMETRIC LINES IS 
             LESS THAN 45 OR GREATER THAN 135 DEG.  THE MIN/MAX ANGLE IS 29.617 
             DEG.

 ***WARNING: ELEMENT 2512 IS DISTORTED: ANGLE BETWEEN ISOPARAMETRIC LINES IS 
             LESS THAN 45 OR GREATER THAN 135 DEG.  THE MIN/MAX ANGLE IS 30.939 
             DEG.

 ***WARNING: ELEMENT 2513 IS DISTORTED: ANGLE BETWEEN ISOPARAMETRIC LINES IS 
             LESS THAN 45 OR GREATER THAN 135 DEG.  THE MIN/MAX ANGLE IS 32.674 
             DEG.

 ***WARNING: ELEMENT 2514 IS DISTORTED: ANGLE BETWEEN ISOPARAMETRIC LINES IS 
             LESS THAN 45 OR GREATER THAN 135 DEG.  THE MIN/MAX ANGLE IS 34.968 
             DEG.

 ***WARNING: ELEMENT 2515 IS DISTORTED: ANGLE BETWEEN ISOPARAMETRIC LINES IS 
             LESS THAN 45 OR GREATER THAN 135 DEG.  THE MIN/MAX ANGLE IS 38.026 
             DEG.

 ***WARNING: ELEMENT 2516 IS DISTORTED: ANGLE BETWEEN ISOPARAMETRIC LINES IS 
             LESS THAN 45 OR GREATER THAN 135 DEG.  THE MIN/MAX ANGLE IS 42.138 
             DEG.

 ***WARNING: ELEMENT 2525 IS DISTORTED: ANGLE BETWEEN ISOPARAMETRIC LINES IS 
             LESS THAN 45 OR GREATER THAN 135 DEG.  THE MIN/MAX ANGLE IS 41.926 
             DEG.

 ***WARNING: ELEMENT 2526 IS DISTORTED: ANGLE BETWEEN ISOPARAMETRIC LINES IS 
             LESS THAN 45 OR GREATER THAN 135 DEG.  THE MIN/MAX ANGLE IS 37.773 
             DEG.

 ***WARNING: ELEMENT 2527 IS DISTORTED: ANGLE BETWEEN ISOPARAMETRIC LINES IS 
             LESS THAN 45 OR GREATER THAN 135 DEG.  THE MIN/MAX ANGLE IS 34.672 
             DEG.

 ***WARNING: ELEMENT 2528 IS DISTORTED: ANGLE BETWEEN ISOPARAMETRIC LINES IS 
             LESS THAN 45 OR GREATER THAN 135 DEG.  THE MIN/MAX ANGLE IS 32.337 
             DEG.

 ***WARNING: ELEMENT 2529 IS DISTORTED: ANGLE BETWEEN ISOPARAMETRIC LINES IS 
             LESS THAN 45 OR GREATER THAN 135 DEG.  THE MIN/MAX ANGLE IS 30.561 
             DEG.

 ***WARNING: ELEMENT 2530 IS DISTORTED: ANGLE BETWEEN ISOPARAMETRIC LINES IS 
             LESS THAN 45 OR GREATER THAN 135 DEG.  THE MIN/MAX ANGLE IS 29.199 
             DEG.

 ***WARNING: ELEMENT 2551 IS DISTORTED: ANGLE BETWEEN ISOPARAMETRIC LINES IS 
             LESS THAN 45 OR GREATER THAN 135 DEG.  THE MIN/MAX ANGLE IS 29.199 
             DEG.

 ***WARNING: ELEMENT 2552 IS DISTORTED: ANGLE BETWEEN ISOPARAMETRIC LINES IS 
             LESS THAN 45 OR GREATER THAN 135 DEG.  THE MIN/MAX ANGLE IS 30.561 
             DEG.

 ***WARNING: ELEMENT 2553 IS DISTORTED: ANGLE BETWEEN ISOPARAMETRIC LINES IS 
             LESS THAN 45 OR GREATER THAN 135 DEG.  THE MIN/MAX ANGLE IS 32.337 
             DEG.

 ***WARNING: ELEMENT 2554 IS DISTORTED: ANGLE BETWEEN ISOPARAMETRIC LINES IS 
             LESS THAN 45 OR GREATER THAN 135 DEG.  THE MIN/MAX ANGLE IS 34.672 
             DEG.

 ***WARNING: ELEMENT 2555 IS DISTORTED: ANGLE BETWEEN ISOPARAMETRIC LINES IS 
             LESS THAN 45 OR GREATER THAN 135 DEG.  THE MIN/MAX ANGLE IS 37.773 
             DEG.

 ***WARNING: ELEMENT 2556 IS DISTORTED: ANGLE BETWEEN ISOPARAMETRIC LINES IS 
             LESS THAN 45 OR GREATER THAN 135 DEG.  THE MIN/MAX ANGLE IS 41.926 
             DEG.

 ***WARNING: ELEMENT 2565 IS DISTORTED: ANGLE BETWEEN ISOPARAMETRIC LINES IS 
             LESS THAN 45 OR GREATER THAN 135 DEG.  THE MIN/MAX ANGLE IS 41.728 
             DEG.

 ***WARNING: ELEMENT 2566 IS DISTORTED: ANGLE BETWEEN ISOPARAMETRIC LINES IS 
             LESS THAN 45 OR GREATER THAN 135 DEG.  THE MIN/MAX ANGLE IS 37.535 
             DEG.

 ***WARNING: ELEMENT 2567 IS DISTORTED: ANGLE BETWEEN ISOPARAMETRIC LINES IS 
             LESS THAN 45 OR GREATER THAN 135 DEG.  THE MIN/MAX ANGLE IS 34.396 
             DEG.

 ***WARNING: ELEMENT 2568 IS DISTORTED: ANGLE BETWEEN ISOPARAMETRIC LINES IS 
             LESS THAN 45 OR GREATER THAN 135 DEG.  THE MIN/MAX ANGLE IS 32.022 
             DEG.

 ***WARNING: ELEMENT 2569 IS DISTORTED: ANGLE BETWEEN ISOPARAMETRIC LINES IS 
             LESS THAN 45 OR GREATER THAN 135 DEG.  THE MIN/MAX ANGLE IS 30.209 
             DEG.

 ***WARNING: ELEMENT 2570 IS DISTORTED: ANGLE BETWEEN ISOPARAMETRIC LINES IS 
             LESS THAN 45 OR GREATER THAN 135 DEG.  THE MIN/MAX ANGLE IS 28.810 
             DEG.

 ***WARNING: ELEMENT 2591 IS DISTORTED: ANGLE BETWEEN ISOPARAMETRIC LINES IS 
             LESS THAN 45 OR GREATER THAN 135 DEG.  THE MIN/MAX ANGLE IS 28.810 
             DEG.

 ***WARNING: ELEMENT 2592 IS DISTORTED: ANGLE BETWEEN ISOPARAMETRIC LINES IS 
             LESS THAN 45 OR GREATER THAN 135 DEG.  THE MIN/MAX ANGLE IS 30.209 
             DEG.

 ***WARNING: ELEMENT 2593 IS DISTORTED: ANGLE BETWEEN ISOPARAMETRIC LINES IS 
             LESS THAN 45 OR GREATER THAN 135 DEG.  THE MIN/MAX ANGLE IS 32.022 
             DEG.

 ***WARNING: ELEMENT 2594 IS DISTORTED: ANGLE BETWEEN ISOPARAMETRIC LINES IS 
             LESS THAN 45 OR GREATER THAN 135 DEG.  THE MIN/MAX ANGLE IS 34.396 
             DEG.

 ***WARNING: ELEMENT 2595 IS DISTORTED: ANGLE BETWEEN ISOPARAMETRIC LINES IS 
             LESS THAN 45 OR GREATER THAN 135 DEG.  THE MIN/MAX ANGLE IS 37.535 
             DEG.

 ***WARNING: ELEMENT 2596 IS DISTORTED: ANGLE BETWEEN ISOPARAMETRIC LINES IS 
             LESS THAN 45 OR GREATER THAN 135 DEG.  THE MIN/MAX ANGLE IS 41.728 
             DEG.

 ***WARNING: ELEMENT 2605 IS DISTORTED: ANGLE BETWEEN ISOPARAMETRIC LINES IS 
             LESS THAN 45 OR GREATER THAN 135 DEG.  THE MIN/MAX ANGLE IS 41.543 
             DEG.

 ***WARNING: ELEMENT 2606 IS DISTORTED: ANGLE BETWEEN ISOPARAMETRIC LINES IS 
             LESS THAN 45 OR GREATER THAN 135 DEG.  THE MIN/MAX ANGLE IS 37.313 
             DEG.

 ***WARNING: ELEMENT 2607 IS DISTORTED: ANGLE BETWEEN ISOPARAMETRIC LINES IS 
             LESS THAN 45 OR GREATER THAN 135 DEG.  THE MIN/MAX ANGLE IS 34.137 
             DEG.

 ***WARNING: ELEMENT 2608 IS DISTORTED: ANGLE BETWEEN ISOPARAMETRIC LINES IS 
             LESS THAN 45 OR GREATER THAN 135 DEG.  THE MIN/MAX ANGLE IS 31.727 
             DEG.

 ***WARNING: ELEMENT 2609 IS DISTORTED: ANGLE BETWEEN ISOPARAMETRIC LINES IS 
             LESS THAN 45 OR GREATER THAN 135 DEG.  THE MIN/MAX ANGLE IS 29.879 
             DEG.

 ***WARNING: ELEMENT 2610 IS DISTORTED: ANGLE BETWEEN ISOPARAMETRIC LINES IS 
             LESS THAN 45 OR GREATER THAN 135 DEG.  THE MIN/MAX ANGLE IS 28.446 
             DEG.

 ***WARNING: ELEMENT 2631 IS DISTORTED: ANGLE BETWEEN ISOPARAMETRIC LINES IS 
             LESS THAN 45 OR GREATER THAN 135 DEG.  THE MIN/MAX ANGLE IS 28.446 
             DEG.

 ***WARNING: ELEMENT 2632 IS DISTORTED: ANGLE BETWEEN ISOPARAMETRIC LINES IS 
             LESS THAN 45 OR GREATER THAN 135 DEG.  THE MIN/MAX ANGLE IS 29.879 
             DEG.

 ***WARNING: ELEMENT 2633 IS DISTORTED: ANGLE BETWEEN ISOPARAMETRIC LINES IS 
             LESS THAN 45 OR GREATER THAN 135 DEG.  THE MIN/MAX ANGLE IS 31.727 
             DEG.

 ***WARNING: ELEMENT 2634 IS DISTORTED: ANGLE BETWEEN ISOPARAMETRIC LINES IS 
             LESS THAN 45 OR GREATER THAN 135 DEG.  THE MIN/MAX ANGLE IS 34.137 
             DEG.

 ***WARNING: ELEMENT 2635 IS DISTORTED: ANGLE BETWEEN ISOPARAMETRIC LINES IS 
             LESS THAN 45 OR GREATER THAN 135 DEG.  THE MIN/MAX ANGLE IS 37.313 
             DEG.

 ***WARNING: ELEMENT 2636 IS DISTORTED: ANGLE BETWEEN ISOPARAMETRIC LINES IS 
             LESS THAN 45 OR GREATER THAN 135 DEG.  THE MIN/MAX ANGLE IS 41.543 
             DEG.

 ***WARNING: ELEMENT 2645 IS DISTORTED: ANGLE BETWEEN ISOPARAMETRIC LINES IS 
             LESS THAN 45 OR GREATER THAN 135 DEG.  THE MIN/MAX ANGLE IS 41.369 
             DEG.

 ***WARNING: ELEMENT 2646 IS DISTORTED: ANGLE BETWEEN ISOPARAMETRIC LINES IS 
             LESS THAN 45 OR GREATER THAN 135 DEG.  THE MIN/MAX ANGLE IS 37.104 
             DEG.

 ***WARNING: ELEMENT 2647 IS DISTORTED: ANGLE BETWEEN ISOPARAMETRIC LINES IS 
             LESS THAN 45 OR GREATER THAN 135 DEG.  THE MIN/MAX ANGLE IS 33.894 
             DEG.

 ***WARNING: ELEMENT 2648 IS DISTORTED: ANGLE BETWEEN ISOPARAMETRIC LINES IS 
             LESS THAN 45 OR GREATER THAN 135 DEG.  THE MIN/MAX ANGLE IS 31.451 
             DEG.

 ***WARNING: ELEMENT 2649 IS DISTORTED: ANGLE BETWEEN ISOPARAMETRIC LINES IS 
             LESS THAN 45 OR GREATER THAN 135 DEG.  THE MIN/MAX ANGLE IS 29.570 
             DEG.

 ***WARNING: ELEMENT 2650 IS DISTORTED: ANGLE BETWEEN ISOPARAMETRIC LINES IS 
             LESS THAN 45 OR GREATER THAN 135 DEG.  THE MIN/MAX ANGLE IS 28.105 
             DEG.

 ***WARNING: ELEMENT 2671 IS DISTORTED: ANGLE BETWEEN ISOPARAMETRIC LINES IS 
             LESS THAN 45 OR GREATER THAN 135 DEG.  THE MIN/MAX ANGLE IS 28.105 
             DEG.

 ***WARNING: ELEMENT 2672 IS DISTORTED: ANGLE BETWEEN ISOPARAMETRIC LINES IS 
             LESS THAN 45 OR GREATER THAN 135 DEG.  THE MIN/MAX ANGLE IS 29.570 
             DEG.

 ***WARNING: ELEMENT 2673 IS DISTORTED: ANGLE BETWEEN ISOPARAMETRIC LINES IS 
             LESS THAN 45 OR GREATER THAN 135 DEG.  THE MIN/MAX ANGLE IS 31.451 
             DEG.

 ***WARNING: ELEMENT 2674 IS DISTORTED: ANGLE BETWEEN ISOPARAMETRIC LINES IS 
             LESS THAN 45 OR GREATER THAN 135 DEG.  THE MIN/MAX ANGLE IS 33.894 
             DEG.

 ***WARNING: ELEMENT 2675 IS DISTORTED: ANGLE BETWEEN ISOPARAMETRIC LINES IS 
             LESS THAN 45 OR GREATER THAN 135 DEG.  THE MIN/MAX ANGLE IS 37.104 
             DEG.

 ***WARNING: ELEMENT 2676 IS DISTORTED: ANGLE BETWEEN ISOPARAMETRIC LINES IS 
             LESS THAN 45 OR GREATER THAN 135 DEG.  THE MIN/MAX ANGLE IS 41.369 
             DEG.

 ***WARNING: ELEMENT 2685 IS DISTORTED: ANGLE BETWEEN ISOPARAMETRIC LINES IS 
             LESS THAN 45 OR GREATER THAN 135 DEG.  THE MIN/MAX ANGLE IS 41.205 
             DEG.

 ***WARNING: ELEMENT 2686 IS DISTORTED: ANGLE BETWEEN ISOPARAMETRIC LINES IS 
             LESS THAN 45 OR GREATER THAN 135 DEG.  THE MIN/MAX ANGLE IS 36.907 
             DEG.

 ***WARNING: ELEMENT 2687 IS DISTORTED: ANGLE BETWEEN ISOPARAMETRIC LINES IS 
             LESS THAN 45 OR GREATER THAN 135 DEG.  THE MIN/MAX ANGLE IS 33.666 
             DEG.

 ***WARNING: ELEMENT 2688 IS DISTORTED: ANGLE BETWEEN ISOPARAMETRIC LINES IS 
             LESS THAN 45 OR GREATER THAN 135 DEG.  THE MIN/MAX ANGLE IS 31.191 
             DEG.

 ***WARNING: ELEMENT 2689 IS DISTORTED: ANGLE BETWEEN ISOPARAMETRIC LINES IS 
             LESS THAN 45 OR GREATER THAN 135 DEG.  THE MIN/MAX ANGLE IS 29.280 
             DEG.

 ***WARNING: ELEMENT 2690 IS DISTORTED: ANGLE BETWEEN ISOPARAMETRIC LINES IS 
             LESS THAN 45 OR GREATER THAN 135 DEG.  THE MIN/MAX ANGLE IS 27.786 
             DEG.

 ***WARNING: ELEMENT 2711 IS DISTORTED: ANGLE BETWEEN ISOPARAMETRIC LINES IS 
             LESS THAN 45 OR GREATER THAN 135 DEG.  THE MIN/MAX ANGLE IS 27.786 
             DEG.

 ***WARNING: ELEMENT 2712 IS DISTORTED: ANGLE BETWEEN ISOPARAMETRIC LINES IS 
             LESS THAN 45 OR GREATER THAN 135 DEG.  THE MIN/MAX ANGLE IS 29.280 
             DEG.

 ***WARNING: ELEMENT 2713 IS DISTORTED: ANGLE BETWEEN ISOPARAMETRIC LINES IS 
             LESS THAN 45 OR GREATER THAN 135 DEG.  THE MIN/MAX ANGLE IS 31.191 
             DEG.

 ***WARNING: ELEMENT 2714 IS DISTORTED: ANGLE BETWEEN ISOPARAMETRIC LINES IS 
             LESS THAN 45 OR GREATER THAN 135 DEG.  THE MIN/MAX ANGLE IS 33.666 
             DEG.

 ***WARNING: ELEMENT 2715 IS DISTORTED: ANGLE BETWEEN ISOPARAMETRIC LINES IS 
             LESS THAN 45 OR GREATER THAN 135 DEG.  THE MIN/MAX ANGLE IS 36.907 
             DEG.

 ***WARNING: ELEMENT 2716 IS DISTORTED: ANGLE BETWEEN ISOPARAMETRIC LINES IS 
             LESS THAN 45 OR GREATER THAN 135 DEG.  THE MIN/MAX ANGLE IS 41.205 
             DEG.

 ***WARNING: ELEMENT 2725 IS DISTORTED: ANGLE BETWEEN ISOPARAMETRIC LINES IS 
             LESS THAN 45 OR GREATER THAN 135 DEG.  THE MIN/MAX ANGLE IS 41.050 
             DEG.

 ***WARNING: ELEMENT 2726 IS DISTORTED: ANGLE BETWEEN ISOPARAMETRIC LINES IS 
             LESS THAN 45 OR GREATER THAN 135 DEG.  THE MIN/MAX ANGLE IS 36.722 
             DEG.

 ***WARNING: ELEMENT 2727 IS DISTORTED: ANGLE BETWEEN ISOPARAMETRIC LINES IS 
             LESS THAN 45 OR GREATER THAN 135 DEG.  THE MIN/MAX ANGLE IS 33.450 
             DEG.

 ***WARNING: ELEMENT 2728 IS DISTORTED: ANGLE BETWEEN ISOPARAMETRIC LINES IS 
             LESS THAN 45 OR GREATER THAN 135 DEG.  THE MIN/MAX ANGLE IS 30.947 
             DEG.

 ***WARNING: ELEMENT 2729 IS DISTORTED: ANGLE BETWEEN ISOPARAMETRIC LINES IS 
             LESS THAN 45 OR GREATER THAN 135 DEG.  THE MIN/MAX ANGLE IS 29.007 
             DEG.

 ***WARNING: ELEMENT 2730 IS DISTORTED: ANGLE BETWEEN ISOPARAMETRIC LINES IS 
             LESS THAN 45 OR GREATER THAN 135 DEG.  THE MIN/MAX ANGLE IS 27.485 
             DEG.

 ***WARNING: ELEMENT 2751 IS DISTORTED: ANGLE BETWEEN ISOPARAMETRIC LINES IS 
             LESS THAN 45 OR GREATER THAN 135 DEG.  THE MIN/MAX ANGLE IS 27.485 
             DEG.

 ***WARNING: ELEMENT 2752 IS DISTORTED: ANGLE BETWEEN ISOPARAMETRIC LINES IS 
             LESS THAN 45 OR GREATER THAN 135 DEG.  THE MIN/MAX ANGLE IS 29.007 
             DEG.

 ***WARNING: ELEMENT 2753 IS DISTORTED: ANGLE BETWEEN ISOPARAMETRIC LINES IS 
             LESS THAN 45 OR GREATER THAN 135 DEG.  THE MIN/MAX ANGLE IS 30.947 
             DEG.

 ***WARNING: ELEMENT 2754 IS DISTORTED: ANGLE BETWEEN ISOPARAMETRIC LINES IS 
             LESS THAN 45 OR GREATER THAN 135 DEG.  THE MIN/MAX ANGLE IS 33.450 
             DEG.

 ***WARNING: ELEMENT 2755 IS DISTORTED: ANGLE BETWEEN ISOPARAMETRIC LINES IS 
             LESS THAN 45 OR GREATER THAN 135 DEG.  THE MIN/MAX ANGLE IS 36.722 
             DEG.

 ***WARNING: ELEMENT 2756 IS DISTORTED: ANGLE BETWEEN ISOPARAMETRIC LINES IS 
             LESS THAN 45 OR GREATER THAN 135 DEG.  THE MIN/MAX ANGLE IS 41.050 
             DEG.

 ***WARNING: ELEMENT 2765 IS DISTORTED: ANGLE BETWEEN ISOPARAMETRIC LINES IS 
             LESS THAN 45 OR GREATER THAN 135 DEG.  THE MIN/MAX ANGLE IS 40.904 
             DEG.

 ***WARNING: ELEMENT 2766 IS DISTORTED: ANGLE BETWEEN ISOPARAMETRIC LINES IS 
             LESS THAN 45 OR GREATER THAN 135 DEG.  THE MIN/MAX ANGLE IS 36.548 
             DEG.

 ***WARNING: ELEMENT 2767 IS DISTORTED: ANGLE BETWEEN ISOPARAMETRIC LINES IS 
             LESS THAN 45 OR GREATER THAN 135 DEG.  THE MIN/MAX ANGLE IS 33.247 
             DEG.

 ***WARNING: ELEMENT 2768 IS DISTORTED: ANGLE BETWEEN ISOPARAMETRIC LINES IS 
             LESS THAN 45 OR GREATER THAN 135 DEG.  THE MIN/MAX ANGLE IS 30.716 
             DEG.

 ***WARNING: ELEMENT 2769 IS DISTORTED: ANGLE BETWEEN ISOPARAMETRIC LINES IS 
             LESS THAN 45 OR GREATER THAN 135 DEG.  THE MIN/MAX ANGLE IS 28.750 
             DEG.

 ***WARNING: ELEMENT 2770 IS DISTORTED: ANGLE BETWEEN ISOPARAMETRIC LINES IS 
             LESS THAN 45 OR GREATER THAN 135 DEG.  THE MIN/MAX ANGLE IS 27.202 
             DEG.

 ***WARNING: ELEMENT 2791 IS DISTORTED: ANGLE BETWEEN ISOPARAMETRIC LINES IS 
             LESS THAN 45 OR GREATER THAN 135 DEG.  THE MIN/MAX ANGLE IS 27.202 
             DEG.

 ***WARNING: ELEMENT 2792 IS DISTORTED: ANGLE BETWEEN ISOPARAMETRIC LINES IS 
             LESS THAN 45 OR GREATER THAN 135 DEG.  THE MIN/MAX ANGLE IS 28.750 
             DEG.

 ***WARNING: ELEMENT 2793 IS DISTORTED: ANGLE BETWEEN ISOPARAMETRIC LINES IS 
             LESS THAN 45 OR GREATER THAN 135 DEG.  THE MIN/MAX ANGLE IS 30.716 
             DEG.

 ***WARNING: ELEMENT 2794 IS DISTORTED: ANGLE BETWEEN ISOPARAMETRIC LINES IS 
             LESS THAN 45 OR GREATER THAN 135 DEG.  THE MIN/MAX ANGLE IS 33.247 
             DEG.

 ***WARNING: ELEMENT 2795 IS DISTORTED: ANGLE BETWEEN ISOPARAMETRIC LINES IS 
             LESS THAN 45 OR GREATER THAN 135 DEG.  THE MIN/MAX ANGLE IS 36.548 
             DEG.

 ***WARNING: ELEMENT 2796 IS DISTORTED: ANGLE BETWEEN ISOPARAMETRIC LINES IS 
             LESS THAN 45 OR GREATER THAN 135 DEG.  THE MIN/MAX ANGLE IS 40.904 
             DEG.

 ***WARNING: ELEMENT 2805 IS DISTORTED: ANGLE BETWEEN ISOPARAMETRIC LINES IS 
             LESS THAN 45 OR GREATER THAN 135 DEG.  THE MIN/MAX ANGLE IS 40.766 
             DEG.

 ***WARNING: ELEMENT 2806 IS DISTORTED: ANGLE BETWEEN ISOPARAMETRIC LINES IS 
             LESS THAN 45 OR GREATER THAN 135 DEG.  THE MIN/MAX ANGLE IS 36.382 
             DEG.

 ***WARNING: ELEMENT 2807 IS DISTORTED: ANGLE BETWEEN ISOPARAMETRIC LINES IS 
             LESS THAN 45 OR GREATER THAN 135 DEG.  THE MIN/MAX ANGLE IS 33.055 
             DEG.

 ***WARNING: ELEMENT 2808 IS DISTORTED: ANGLE BETWEEN ISOPARAMETRIC LINES IS 
             LESS THAN 45 OR GREATER THAN 135 DEG.  THE MIN/MAX ANGLE IS 30.498 
             DEG.

 ***WARNING: ELEMENT 2809 IS DISTORTED: ANGLE BETWEEN ISOPARAMETRIC LINES IS 
             LESS THAN 45 OR GREATER THAN 135 DEG.  THE MIN/MAX ANGLE IS 28.507 
             DEG.

 ***WARNING: ELEMENT 2810 IS DISTORTED: ANGLE BETWEEN ISOPARAMETRIC LINES IS 
             LESS THAN 45 OR GREATER THAN 135 DEG.  THE MIN/MAX ANGLE IS 26.935 
             DEG.

 ***WARNING: ELEMENT 2831 IS DISTORTED: ANGLE BETWEEN ISOPARAMETRIC LINES IS 
             LESS THAN 45 OR GREATER THAN 135 DEG.  THE MIN/MAX ANGLE IS 26.935 
             DEG.

 ***WARNING: ELEMENT 2832 IS DISTORTED: ANGLE BETWEEN ISOPARAMETRIC LINES IS 
             LESS THAN 45 OR GREATER THAN 135 DEG.  THE MIN/MAX ANGLE IS 28.507 
             DEG.

 ***WARNING: ELEMENT 2833 IS DISTORTED: ANGLE BETWEEN ISOPARAMETRIC LINES IS 
             LESS THAN 45 OR GREATER THAN 135 DEG.  THE MIN/MAX ANGLE IS 30.498 
             DEG.

 ***WARNING: ELEMENT 2834 IS DISTORTED: ANGLE BETWEEN ISOPARAMETRIC LINES IS 
             LESS THAN 45 OR GREATER THAN 135 DEG.  THE MIN/MAX ANGLE IS 33.055 
             DEG.

 ***WARNING: ELEMENT 2835 IS DISTORTED: ANGLE BETWEEN ISOPARAMETRIC LINES IS 
             LESS THAN 45 OR GREATER THAN 135 DEG.  THE MIN/MAX ANGLE IS 36.382 
             DEG.

 ***WARNING: ELEMENT 2836 IS DISTORTED: ANGLE BETWEEN ISOPARAMETRIC LINES IS 
             LESS THAN 45 OR GREATER THAN 135 DEG.  THE MIN/MAX ANGLE IS 40.766 
             DEG.

 ***WARNING: ELEMENT 2845 IS DISTORTED: ANGLE BETWEEN ISOPARAMETRIC LINES IS 
             LESS THAN 45 OR GREATER THAN 135 DEG.  THE MIN/MAX ANGLE IS 40.636 
             DEG.

 ***WARNING: ELEMENT 2846 IS DISTORTED: ANGLE BETWEEN ISOPARAMETRIC LINES IS 
             LESS THAN 45 OR GREATER THAN 135 DEG.  THE MIN/MAX ANGLE IS 36.226 
             DEG.

 ***WARNING: ELEMENT 2847 IS DISTORTED: ANGLE BETWEEN ISOPARAMETRIC LINES IS 
             LESS THAN 45 OR GREATER THAN 135 DEG.  THE MIN/MAX ANGLE IS 32.874 
             DEG.

 ***WARNING: ELEMENT 2848 IS DISTORTED: ANGLE BETWEEN ISOPARAMETRIC LINES IS 
             LESS THAN 45 OR GREATER THAN 135 DEG.  THE MIN/MAX ANGLE IS 30.292 
             DEG.

 ***WARNING: ELEMENT 2849 IS DISTORTED: ANGLE BETWEEN ISOPARAMETRIC LINES IS 
             LESS THAN 45 OR GREATER THAN 135 DEG.  THE MIN/MAX ANGLE IS 28.277 
             DEG.

 ***WARNING: ELEMENT 2850 IS DISTORTED: ANGLE BETWEEN ISOPARAMETRIC LINES IS 
             LESS THAN 45 OR GREATER THAN 135 DEG.  THE MIN/MAX ANGLE IS 26.682 
             DEG.

 ***WARNING: ELEMENT 2871 IS DISTORTED: ANGLE BETWEEN ISOPARAMETRIC LINES IS 
             LESS THAN 45 OR GREATER THAN 135 DEG.  THE MIN/MAX ANGLE IS 26.682 
             DEG.

 ***WARNING: ELEMENT 2872 IS DISTORTED: ANGLE BETWEEN ISOPARAMETRIC LINES IS 
             LESS THAN 45 OR GREATER THAN 135 DEG.  THE MIN/MAX ANGLE IS 28.277 
             DEG.

 ***WARNING: ELEMENT 2873 IS DISTORTED: ANGLE BETWEEN ISOPARAMETRIC LINES IS 
             LESS THAN 45 OR GREATER THAN 135 DEG.  THE MIN/MAX ANGLE IS 30.292 
             DEG.

 ***WARNING: ELEMENT 2874 IS DISTORTED: ANGLE BETWEEN ISOPARAMETRIC LINES IS 
             LESS THAN 45 OR GREATER THAN 135 DEG.  THE MIN/MAX ANGLE IS 32.874 
             DEG.

 ***WARNING: ELEMENT 2875 IS DISTORTED: ANGLE BETWEEN ISOPARAMETRIC LINES IS 
             LESS THAN 45 OR GREATER THAN 135 DEG.  THE MIN/MAX ANGLE IS 36.226 
             DEG.

 ***WARNING: ELEMENT 2876 IS DISTORTED: ANGLE BETWEEN ISOPARAMETRIC LINES IS 
             LESS THAN 45 OR GREATER THAN 135 DEG.  THE MIN/MAX ANGLE IS 40.636 
             DEG.

 ***WARNING: ELEMENT 2885 IS DISTORTED: ANGLE BETWEEN ISOPARAMETRIC LINES IS 
             LESS THAN 45 OR GREATER THAN 135 DEG.  THE MIN/MAX ANGLE IS 40.512 
             DEG.

 ***WARNING: ELEMENT 2886 IS DISTORTED: ANGLE BETWEEN ISOPARAMETRIC LINES IS 
             LESS THAN 45 OR GREATER THAN 135 DEG.  THE MIN/MAX ANGLE IS 36.078 
             DEG.

 ***WARNING: ELEMENT 2887 IS DISTORTED: ANGLE BETWEEN ISOPARAMETRIC LINES IS 
             LESS THAN 45 OR GREATER THAN 135 DEG.  THE MIN/MAX ANGLE IS 32.702 
             DEG.

 ***WARNING: ELEMENT 2888 IS DISTORTED: ANGLE BETWEEN ISOPARAMETRIC LINES IS 
             LESS THAN 45 OR GREATER THAN 135 DEG.  THE MIN/MAX ANGLE IS 30.097 
             DEG.

 ***WARNING: ELEMENT 2889 IS DISTORTED: ANGLE BETWEEN ISOPARAMETRIC LINES IS 
             LESS THAN 45 OR GREATER THAN 135 DEG.  THE MIN/MAX ANGLE IS 28.059 
             DEG.

 ***WARNING: ELEMENT 2890 IS DISTORTED: ANGLE BETWEEN ISOPARAMETRIC LINES IS 
             LESS THAN 45 OR GREATER THAN 135 DEG.  THE MIN/MAX ANGLE IS 26.443 
             DEG.

 ***WARNING: ELEMENT 2911 IS DISTORTED: ANGLE BETWEEN ISOPARAMETRIC LINES IS 
             LESS THAN 45 OR GREATER THAN 135 DEG.  THE MIN/MAX ANGLE IS 26.443 
             DEG.

 ***WARNING: ELEMENT 2912 IS DISTORTED: ANGLE BETWEEN ISOPARAMETRIC LINES IS 
             LESS THAN 45 OR GREATER THAN 135 DEG.  THE MIN/MAX ANGLE IS 28.059 
             DEG.

 ***WARNING: ELEMENT 2913 IS DISTORTED: ANGLE BETWEEN ISOPARAMETRIC LINES IS 
             LESS THAN 45 OR GREATER THAN 135 DEG.  THE MIN/MAX ANGLE IS 30.097 
             DEG.

 ***WARNING: ELEMENT 2914 IS DISTORTED: ANGLE BETWEEN ISOPARAMETRIC LINES IS 
             LESS THAN 45 OR GREATER THAN 135 DEG.  THE MIN/MAX ANGLE IS 32.702 
             DEG.

 ***WARNING: ELEMENT 2915 IS DISTORTED: ANGLE BETWEEN ISOPARAMETRIC LINES IS 
             LESS THAN 45 OR GREATER THAN 135 DEG.  THE MIN/MAX ANGLE IS 36.078 
             DEG.

 ***WARNING: ELEMENT 2916 IS DISTORTED: ANGLE BETWEEN ISOPARAMETRIC LINES IS 
             LESS THAN 45 OR GREATER THAN 135 DEG.  THE MIN/MAX ANGLE IS 40.512 
             DEG.

 ***WARNING: ELEMENT 2925 IS DISTORTED: ANGLE BETWEEN ISOPARAMETRIC LINES IS 
             LESS THAN 45 OR GREATER THAN 135 DEG.  THE MIN/MAX ANGLE IS 40.394 
             DEG.

 ***WARNING: ELEMENT 2926 IS DISTORTED: ANGLE BETWEEN ISOPARAMETRIC LINES IS 
             LESS THAN 45 OR GREATER THAN 135 DEG.  THE MIN/MAX ANGLE IS 35.937 
             DEG.

 ***WARNING: ELEMENT 2927 IS DISTORTED: ANGLE BETWEEN ISOPARAMETRIC LINES IS 
             LESS THAN 45 OR GREATER THAN 135 DEG.  THE MIN/MAX ANGLE IS 32.538 
             DEG.

 ***WARNING: ELEMENT 2928 IS DISTORTED: ANGLE BETWEEN ISOPARAMETRIC LINES IS 
             LESS THAN 45 OR GREATER THAN 135 DEG.  THE MIN/MAX ANGLE IS 29.912 
             DEG.

 ***WARNING: ELEMENT 2929 IS DISTORTED: ANGLE BETWEEN ISOPARAMETRIC LINES IS 
             LESS THAN 45 OR GREATER THAN 135 DEG.  THE MIN/MAX ANGLE IS 27.853 
             DEG.

 ***WARNING: ELEMENT 2930 IS DISTORTED: ANGLE BETWEEN ISOPARAMETRIC LINES IS 
             LESS THAN 45 OR GREATER THAN 135 DEG.  THE MIN/MAX ANGLE IS 26.217 
             DEG.

 ***WARNING: ELEMENT 2951 IS DISTORTED: ANGLE BETWEEN ISOPARAMETRIC LINES IS 
             LESS THAN 45 OR GREATER THAN 135 DEG.  THE MIN/MAX ANGLE IS 26.217 
             DEG.

 ***WARNING: ELEMENT 2952 IS DISTORTED: ANGLE BETWEEN ISOPARAMETRIC LINES IS 
             LESS THAN 45 OR GREATER THAN 135 DEG.  THE MIN/MAX ANGLE IS 27.853 
             DEG.

 ***WARNING: ELEMENT 2953 IS DISTORTED: ANGLE BETWEEN ISOPARAMETRIC LINES IS 
             LESS THAN 45 OR GREATER THAN 135 DEG.  THE MIN/MAX ANGLE IS 29.912 
             DEG.

 ***WARNING: ELEMENT 2954 IS DISTORTED: ANGLE BETWEEN ISOPARAMETRIC LINES IS 
             LESS THAN 45 OR GREATER THAN 135 DEG.  THE MIN/MAX ANGLE IS 32.538 
             DEG.

 ***WARNING: ELEMENT 2955 IS DISTORTED: ANGLE BETWEEN ISOPARAMETRIC LINES IS 
             LESS THAN 45 OR GREATER THAN 135 DEG.  THE MIN/MAX ANGLE IS 35.937 
             DEG.

 ***WARNING: ELEMENT 2956 IS DISTORTED: ANGLE BETWEEN ISOPARAMETRIC LINES IS 
             LESS THAN 45 OR GREATER THAN 135 DEG.  THE MIN/MAX ANGLE IS 40.394 
             DEG.

 ***WARNING: ELEMENT 2965 IS DISTORTED: ANGLE BETWEEN ISOPARAMETRIC LINES IS 
             LESS THAN 45 OR GREATER THAN 135 DEG.  THE MIN/MAX ANGLE IS 40.282 
             DEG.

 ***WARNING: ELEMENT 2966 IS DISTORTED: ANGLE BETWEEN ISOPARAMETRIC LINES IS 
             LESS THAN 45 OR GREATER THAN 135 DEG.  THE MIN/MAX ANGLE IS 35.803 
             DEG.

 ***WARNING: ELEMENT 2967 IS DISTORTED: ANGLE BETWEEN ISOPARAMETRIC LINES IS 
             LESS THAN 45 OR GREATER THAN 135 DEG.  THE MIN/MAX ANGLE IS 32.383 
             DEG.

 ***WARNING: ELEMENT 2968 IS DISTORTED: ANGLE BETWEEN ISOPARAMETRIC LINES IS 
             LESS THAN 45 OR GREATER THAN 135 DEG.  THE MIN/MAX ANGLE IS 29.736 
             DEG.

 ***WARNING: ELEMENT 2969 IS DISTORTED: ANGLE BETWEEN ISOPARAMETRIC LINES IS 
             LESS THAN 45 OR GREATER THAN 135 DEG.  THE MIN/MAX ANGLE IS 27.657 
             DEG.

 ***WARNING: ELEMENT 2970 IS DISTORTED: ANGLE BETWEEN ISOPARAMETRIC LINES IS 
             LESS THAN 45 OR GREATER THAN 135 DEG.  THE MIN/MAX ANGLE IS 26.002 
             DEG.

 ***WARNING: ELEMENT 2991 IS DISTORTED: ANGLE BETWEEN ISOPARAMETRIC LINES IS 
             LESS THAN 45 OR GREATER THAN 135 DEG.  THE MIN/MAX ANGLE IS 26.002 
             DEG.

 ***WARNING: ELEMENT 2992 IS DISTORTED: ANGLE BETWEEN ISOPARAMETRIC LINES IS 
             LESS THAN 45 OR GREATER THAN 135 DEG.  THE MIN/MAX ANGLE IS 27.657 
             DEG.

 ***WARNING: ELEMENT 2993 IS DISTORTED: ANGLE BETWEEN ISOPARAMETRIC LINES IS 
             LESS THAN 45 OR GREATER THAN 135 DEG.  THE MIN/MAX ANGLE IS 29.736 
             DEG.

 ***WARNING: ELEMENT 2994 IS DISTORTED: ANGLE BETWEEN ISOPARAMETRIC LINES IS 
             LESS THAN 45 OR GREATER THAN 135 DEG.  THE MIN/MAX ANGLE IS 32.383 
             DEG.

 ***WARNING: ELEMENT 2995 IS DISTORTED: ANGLE BETWEEN ISOPARAMETRIC LINES IS 
             LESS THAN 45 OR GREATER THAN 135 DEG.  THE MIN/MAX ANGLE IS 35.803 
             DEG.

 ***WARNING: ELEMENT 2996 IS DISTORTED: ANGLE BETWEEN ISOPARAMETRIC LINES IS 
             LESS THAN 45 OR GREATER THAN 135 DEG.  THE MIN/MAX ANGLE IS 40.282 
             DEG.

 ***WARNING: ELEMENT 3005 IS DISTORTED: ANGLE BETWEEN ISOPARAMETRIC LINES IS 
             LESS THAN 45 OR GREATER THAN 135 DEG.  THE MIN/MAX ANGLE IS 40.175 
             DEG.

 ***WARNING: ELEMENT 3006 IS DISTORTED: ANGLE BETWEEN ISOPARAMETRIC LINES IS 
             LESS THAN 45 OR GREATER THAN 135 DEG.  THE MIN/MAX ANGLE IS 35.675 
             DEG.

 ***WARNING: ELEMENT 3007 IS DISTORTED: ANGLE BETWEEN ISOPARAMETRIC LINES IS 
             LESS THAN 45 OR GREATER THAN 135 DEG.  THE MIN/MAX ANGLE IS 32.235 
             DEG.

 ***WARNING: ELEMENT 3008 IS DISTORTED: ANGLE BETWEEN ISOPARAMETRIC LINES IS 
             LESS THAN 45 OR GREATER THAN 135 DEG.  THE MIN/MAX ANGLE IS 29.569 
             DEG.

 ***WARNING: ELEMENT 3009 IS DISTORTED: ANGLE BETWEEN ISOPARAMETRIC LINES IS 
             LESS THAN 45 OR GREATER THAN 135 DEG.  THE MIN/MAX ANGLE IS 27.471 
             DEG.

 ***WARNING: ELEMENT 3010 IS DISTORTED: ANGLE BETWEEN ISOPARAMETRIC LINES IS 
             LESS THAN 45 OR GREATER THAN 135 DEG.  THE MIN/MAX ANGLE IS 25.797 
             DEG.

 ***WARNING: ELEMENT 3031 IS DISTORTED: ANGLE BETWEEN ISOPARAMETRIC LINES IS 
             LESS THAN 45 OR GREATER THAN 135 DEG.  THE MIN/MAX ANGLE IS 25.797 
             DEG.

 ***WARNING: ELEMENT 3032 IS DISTORTED: ANGLE BETWEEN ISOPARAMETRIC LINES IS 
             LESS THAN 45 OR GREATER THAN 135 DEG.  THE MIN/MAX ANGLE IS 27.471 
             DEG.

 ***WARNING: ELEMENT 3033 IS DISTORTED: ANGLE BETWEEN ISOPARAMETRIC LINES IS 
             LESS THAN 45 OR GREATER THAN 135 DEG.  THE MIN/MAX ANGLE IS 29.569 
             DEG.

 ***WARNING: ELEMENT 3034 IS DISTORTED: ANGLE BETWEEN ISOPARAMETRIC LINES IS 
             LESS THAN 45 OR GREATER THAN 135 DEG.  THE MIN/MAX ANGLE IS 32.235 
             DEG.

 ***WARNING: ELEMENT 3035 IS DISTORTED: ANGLE BETWEEN ISOPARAMETRIC LINES IS 
             LESS THAN 45 OR GREATER THAN 135 DEG.  THE MIN/MAX ANGLE IS 35.675 
             DEG.

 ***WARNING: ELEMENT 3036 IS DISTORTED: ANGLE BETWEEN ISOPARAMETRIC LINES IS 
             LESS THAN 45 OR GREATER THAN 135 DEG.  THE MIN/MAX ANGLE IS 40.175 
             DEG.

 ***WARNING: ELEMENT 3045 IS DISTORTED: ANGLE BETWEEN ISOPARAMETRIC LINES IS 
             LESS THAN 45 OR GREATER THAN 135 DEG.  THE MIN/MAX ANGLE IS 40.074 
             DEG.

 ***WARNING: ELEMENT 3046 IS DISTORTED: ANGLE BETWEEN ISOPARAMETRIC LINES IS 
             LESS THAN 45 OR GREATER THAN 135 DEG.  THE MIN/MAX ANGLE IS 35.554 
             DEG.

 ***WARNING: ELEMENT 3047 IS DISTORTED: ANGLE BETWEEN ISOPARAMETRIC LINES IS 
             LESS THAN 45 OR GREATER THAN 135 DEG.  THE MIN/MAX ANGLE IS 32.095 
             DEG.

 ***WARNING: ELEMENT 3048 IS DISTORTED: ANGLE BETWEEN ISOPARAMETRIC LINES IS 
             LESS THAN 45 OR GREATER THAN 135 DEG.  THE MIN/MAX ANGLE IS 29.409 
             DEG.

 ***WARNING: ELEMENT 3049 IS DISTORTED: ANGLE BETWEEN ISOPARAMETRIC LINES IS 
             LESS THAN 45 OR GREATER THAN 135 DEG.  THE MIN/MAX ANGLE IS 27.294 
             DEG.

 ***WARNING: ELEMENT 3050 IS DISTORTED: ANGLE BETWEEN ISOPARAMETRIC LINES IS 
             LESS THAN 45 OR GREATER THAN 135 DEG.  THE MIN/MAX ANGLE IS 25.603 
             DEG.

 ***WARNING: ELEMENT 3071 IS DISTORTED: ANGLE BETWEEN ISOPARAMETRIC LINES IS 
             LESS THAN 45 OR GREATER THAN 135 DEG.  THE MIN/MAX ANGLE IS 25.603 
             DEG.

 ***WARNING: ELEMENT 3072 IS DISTORTED: ANGLE BETWEEN ISOPARAMETRIC LINES IS 
             LESS THAN 45 OR GREATER THAN 135 DEG.  THE MIN/MAX ANGLE IS 27.294 
             DEG.

 ***WARNING: ELEMENT 3073 IS DISTORTED: ANGLE BETWEEN ISOPARAMETRIC LINES IS 
             LESS THAN 45 OR GREATER THAN 135 DEG.  THE MIN/MAX ANGLE IS 29.409 
             DEG.

 ***WARNING: ELEMENT 3074 IS DISTORTED: ANGLE BETWEEN ISOPARAMETRIC LINES IS 
             LESS THAN 45 OR GREATER THAN 135 DEG.  THE MIN/MAX ANGLE IS 32.095 
             DEG.

 ***WARNING: ELEMENT 3075 IS DISTORTED: ANGLE BETWEEN ISOPARAMETRIC LINES IS 
             LESS THAN 45 OR GREATER THAN 135 DEG.  THE MIN/MAX ANGLE IS 35.554 
             DEG.

 ***WARNING: ELEMENT 3076 IS DISTORTED: ANGLE BETWEEN ISOPARAMETRIC LINES IS 
             LESS THAN 45 OR GREATER THAN 135 DEG.  THE MIN/MAX ANGLE IS 40.074 
             DEG.

 ***WARNING: ELEMENT 3085 IS DISTORTED: ANGLE BETWEEN ISOPARAMETRIC LINES IS 
             LESS THAN 45 OR GREATER THAN 135 DEG.  THE MIN/MAX ANGLE IS 39.977 
             DEG.

 ***WARNING: ELEMENT 3086 IS DISTORTED: ANGLE BETWEEN ISOPARAMETRIC LINES IS 
             LESS THAN 45 OR GREATER THAN 135 DEG.  THE MIN/MAX ANGLE IS 35.438 
             DEG.

 ***WARNING: ELEMENT 3087 IS DISTORTED: ANGLE BETWEEN ISOPARAMETRIC LINES IS 
             LESS THAN 45 OR GREATER THAN 135 DEG.  THE MIN/MAX ANGLE IS 31.960 
             DEG.

 ***WARNING: ELEMENT 3088 IS DISTORTED: ANGLE BETWEEN ISOPARAMETRIC LINES IS 
             LESS THAN 45 OR GREATER THAN 135 DEG.  THE MIN/MAX ANGLE IS 29.257 
             DEG.

 ***WARNING: ELEMENT 3089 IS DISTORTED: ANGLE BETWEEN ISOPARAMETRIC LINES IS 
             LESS THAN 45 OR GREATER THAN 135 DEG.  THE MIN/MAX ANGLE IS 27.125 
             DEG.

 ***WARNING: ELEMENT 3090 IS DISTORTED: ANGLE BETWEEN ISOPARAMETRIC LINES IS 
             LESS THAN 45 OR GREATER THAN 135 DEG.  THE MIN/MAX ANGLE IS 25.418 
             DEG.

 ***WARNING: ELEMENT 3111 IS DISTORTED: ANGLE BETWEEN ISOPARAMETRIC LINES IS 
             LESS THAN 45 OR GREATER THAN 135 DEG.  THE MIN/MAX ANGLE IS 25.418 
             DEG.

 ***WARNING: ELEMENT 3112 IS DISTORTED: ANGLE BETWEEN ISOPARAMETRIC LINES IS 
             LESS THAN 45 OR GREATER THAN 135 DEG.  THE MIN/MAX ANGLE IS 27.125 
             DEG.

 ***WARNING: ELEMENT 3113 IS DISTORTED: ANGLE BETWEEN ISOPARAMETRIC LINES IS 
             LESS THAN 45 OR GREATER THAN 135 DEG.  THE MIN/MAX ANGLE IS 29.257 
             DEG.

 ***WARNING: ELEMENT 3114 IS DISTORTED: ANGLE BETWEEN ISOPARAMETRIC LINES IS 
             LESS THAN 45 OR GREATER THAN 135 DEG.  THE MIN/MAX ANGLE IS 31.960 
             DEG.

 ***WARNING: ELEMENT 3115 IS DISTORTED: ANGLE BETWEEN ISOPARAMETRIC LINES IS 
             LESS THAN 45 OR GREATER THAN 135 DEG.  THE MIN/MAX ANGLE IS 35.438 
             DEG.

 ***WARNING: ELEMENT 3116 IS DISTORTED: ANGLE BETWEEN ISOPARAMETRIC LINES IS 
             LESS THAN 45 OR GREATER THAN 135 DEG.  THE MIN/MAX ANGLE IS 39.977 
             DEG.

 ***WARNING: ELEMENT 3125 IS DISTORTED: ANGLE BETWEEN ISOPARAMETRIC LINES IS 
             LESS THAN 45 OR GREATER THAN 135 DEG.  THE MIN/MAX ANGLE IS 39.884 
             DEG.

 ***WARNING: ELEMENT 3126 IS DISTORTED: ANGLE BETWEEN ISOPARAMETRIC LINES IS 
             LESS THAN 45 OR GREATER THAN 135 DEG.  THE MIN/MAX ANGLE IS 35.327 
             DEG.

 ***WARNING: ELEMENT 3127 IS DISTORTED: ANGLE BETWEEN ISOPARAMETRIC LINES IS 
             LESS THAN 45 OR GREATER THAN 135 DEG.  THE MIN/MAX ANGLE IS 31.832 
             DEG.

 ***WARNING: ELEMENT 3128 IS DISTORTED: ANGLE BETWEEN ISOPARAMETRIC LINES IS 
             LESS THAN 45 OR GREATER THAN 135 DEG.  THE MIN/MAX ANGLE IS 29.112 
             DEG.

 ***WARNING: ELEMENT 3129 IS DISTORTED: ANGLE BETWEEN ISOPARAMETRIC LINES IS 
             LESS THAN 45 OR GREATER THAN 135 DEG.  THE MIN/MAX ANGLE IS 26.963 
             DEG.

 ***WARNING: ELEMENT 3130 IS DISTORTED: ANGLE BETWEEN ISOPARAMETRIC LINES IS 
             LESS THAN 45 OR GREATER THAN 135 DEG.  THE MIN/MAX ANGLE IS 25.241 
             DEG.

 ***WARNING: ELEMENT 3151 IS DISTORTED: ANGLE BETWEEN ISOPARAMETRIC LINES IS 
             LESS THAN 45 OR GREATER THAN 135 DEG.  THE MIN/MAX ANGLE IS 25.241 
             DEG.

 ***WARNING: ELEMENT 3152 IS DISTORTED: ANGLE BETWEEN ISOPARAMETRIC LINES IS 
             LESS THAN 45 OR GREATER THAN 135 DEG.  THE MIN/MAX ANGLE IS 26.963 
             DEG.

 ***WARNING: ELEMENT 3153 IS DISTORTED: ANGLE BETWEEN ISOPARAMETRIC LINES IS 
             LESS THAN 45 OR GREATER THAN 135 DEG.  THE MIN/MAX ANGLE IS 29.112 
             DEG.

 ***WARNING: ELEMENT 3154 IS DISTORTED: ANGLE BETWEEN ISOPARAMETRIC LINES IS 
             LESS THAN 45 OR GREATER THAN 135 DEG.  THE MIN/MAX ANGLE IS 31.832 
             DEG.

 ***WARNING: ELEMENT 3155 IS DISTORTED: ANGLE BETWEEN ISOPARAMETRIC LINES IS 
             LESS THAN 45 OR GREATER THAN 135 DEG.  THE MIN/MAX ANGLE IS 35.327 
             DEG.

 ***WARNING: ELEMENT 3156 IS DISTORTED: ANGLE BETWEEN ISOPARAMETRIC LINES IS 
             LESS THAN 45 OR GREATER THAN 135 DEG.  THE MIN/MAX ANGLE IS 39.884 
             DEG.

 ***WARNING: ELEMENT 3165 IS DISTORTED: ANGLE BETWEEN ISOPARAMETRIC LINES IS 
             LESS THAN 45 OR GREATER THAN 135 DEG.  THE MIN/MAX ANGLE IS 39.795 
             DEG.

 ***WARNING: ELEMENT 3166 IS DISTORTED: ANGLE BETWEEN ISOPARAMETRIC LINES IS 
             LESS THAN 45 OR GREATER THAN 135 DEG.  THE MIN/MAX ANGLE IS 35.221 
             DEG.

 ***WARNING: ELEMENT 3167 IS DISTORTED: ANGLE BETWEEN ISOPARAMETRIC LINES IS 
             LESS THAN 45 OR GREATER THAN 135 DEG.  THE MIN/MAX ANGLE IS 31.709 
             DEG.

 ***WARNING: ELEMENT 3168 IS DISTORTED: ANGLE BETWEEN ISOPARAMETRIC LINES IS 
             LESS THAN 45 OR GREATER THAN 135 DEG.  THE MIN/MAX ANGLE IS 28.973 
             DEG.

 ***WARNING: ELEMENT 3169 IS DISTORTED: ANGLE BETWEEN ISOPARAMETRIC LINES IS 
             LESS THAN 45 OR GREATER THAN 135 DEG.  THE MIN/MAX ANGLE IS 26.809 
             DEG.

 ***WARNING: ELEMENT 3170 IS DISTORTED: ANGLE BETWEEN ISOPARAMETRIC LINES IS 
             LESS THAN 45 OR GREATER THAN 135 DEG.  THE MIN/MAX ANGLE IS 25.073 
             DEG.

 ***WARNING: ELEMENT 3191 IS DISTORTED: ANGLE BETWEEN ISOPARAMETRIC LINES IS 
             LESS THAN 45 OR GREATER THAN 135 DEG.  THE MIN/MAX ANGLE IS 25.073 
             DEG.

 ***WARNING: ELEMENT 3192 IS DISTORTED: ANGLE BETWEEN ISOPARAMETRIC LINES IS 
             LESS THAN 45 OR GREATER THAN 135 DEG.  THE MIN/MAX ANGLE IS 26.809 
             DEG.

 ***WARNING: ELEMENT 3193 IS DISTORTED: ANGLE BETWEEN ISOPARAMETRIC LINES IS 
             LESS THAN 45 OR GREATER THAN 135 DEG.  THE MIN/MAX ANGLE IS 28.973 
             DEG.

 ***WARNING: ELEMENT 3194 IS DISTORTED: ANGLE BETWEEN ISOPARAMETRIC LINES IS 
             LESS THAN 45 OR GREATER THAN 135 DEG.  THE MIN/MAX ANGLE IS 31.709 
             DEG.

 ***WARNING: ELEMENT 3195 IS DISTORTED: ANGLE BETWEEN ISOPARAMETRIC LINES IS 
             LESS THAN 45 OR GREATER THAN 135 DEG.  THE MIN/MAX ANGLE IS 35.221 
             DEG.

 ***WARNING: ELEMENT 3196 IS DISTORTED: ANGLE BETWEEN ISOPARAMETRIC LINES IS 
             LESS THAN 45 OR GREATER THAN 135 DEG.  THE MIN/MAX ANGLE IS 39.795 
             DEG.

 ***WARNING: ELEMENT 3205 IS DISTORTED: ANGLE BETWEEN ISOPARAMETRIC LINES IS 
             LESS THAN 45 OR GREATER THAN 135 DEG.  THE MIN/MAX ANGLE IS 39.710 
             DEG.

 ***WARNING: ELEMENT 3206 IS DISTORTED: ANGLE BETWEEN ISOPARAMETRIC LINES IS 
             LESS THAN 45 OR GREATER THAN 135 DEG.  THE MIN/MAX ANGLE IS 35.120 
             DEG.

 ***WARNING: ELEMENT 3207 IS DISTORTED: ANGLE BETWEEN ISOPARAMETRIC LINES IS 
             LESS THAN 45 OR GREATER THAN 135 DEG.  THE MIN/MAX ANGLE IS 31.592 
             DEG.

 ***WARNING: ELEMENT 3208 IS DISTORTED: ANGLE BETWEEN ISOPARAMETRIC LINES IS 
             LESS THAN 45 OR GREATER THAN 135 DEG.  THE MIN/MAX ANGLE IS 28.841 
             DEG.

 ***WARNING: ELEMENT 3209 IS DISTORTED: ANGLE BETWEEN ISOPARAMETRIC LINES IS 
             LESS THAN 45 OR GREATER THAN 135 DEG.  THE MIN/MAX ANGLE IS 26.662 
             DEG.

 ***WARNING: ELEMENT 3210 IS DISTORTED: ANGLE BETWEEN ISOPARAMETRIC LINES IS 
             LESS THAN 45 OR GREATER THAN 135 DEG.  THE MIN/MAX ANGLE IS 24.911 
             DEG.

 ***WARNING: ELEMENT 3231 IS DISTORTED: ANGLE BETWEEN ISOPARAMETRIC LINES IS 
             LESS THAN 45 OR GREATER THAN 135 DEG.  THE MIN/MAX ANGLE IS 24.911 
             DEG.

 ***WARNING: ELEMENT 3232 IS DISTORTED: ANGLE BETWEEN ISOPARAMETRIC LINES IS 
             LESS THAN 45 OR GREATER THAN 135 DEG.  THE MIN/MAX ANGLE IS 26.662 
             DEG.

 ***WARNING: ELEMENT 3233 IS DISTORTED: ANGLE BETWEEN ISOPARAMETRIC LINES IS 
             LESS THAN 45 OR GREATER THAN 135 DEG.  THE MIN/MAX ANGLE IS 28.841 
             DEG.

[...]
     14446      -1.1786E-10 -4.3134E-10   0.000       0.000     
     14447      -1.2433E-10 -4.3441E-10   0.000       0.000     
     14448      -1.2793E-10 -4.3778E-10   0.000       0.000     
     14449      -1.2857E-10 -4.4132E-10   0.000       0.000     
     14450      -1.2624E-10 -4.4493E-10   0.000       0.000     
     14451      -1.2098E-10 -4.4851E-10   0.000       0.000     
     14452      -1.1290E-10 -4.5195E-10   0.000       0.000     
     14453      -1.0219E-10 -4.5515E-10   0.000       0.000     
     14454      -8.9094E-11 -4.5803E-10   0.000       0.000     
     14455      -7.3919E-11 -4.6050E-10   0.000       0.000     
     14456      -5.7010E-11 -4.6249E-10   0.000       0.000     
     14457      -3.8767E-11 -4.6396E-10   0.000       0.000     
     14458      -1.9613E-11 -4.6485E-10   0.000       0.000     
     14459      -1.9376E-18 -4.6515E-10   0.000       0.000     
     14460       1.9613E-11 -4.6485E-10   0.000       0.000     
     14461       3.8767E-11 -4.6396E-10   0.000       0.000     
     14462       5.7010E-11 -4.6249E-10   0.000       0.000     
     14463       7.3919E-11 -4.6050E-10   0.000       0.000     
     14464       8.9094E-11 -4.5803E-10   0.000       0.000     
     14465       1.0219E-10 -4.5515E-10   0.000       0.000     
     14466       1.1290E-10 -4.5195E-10   0.000       0.000     
     14467       1.2098E-10 -4.4851E-10   0.000       0.000     
     14468       1.2624E-10 -4.4493E-10   0.000       0.000     
     14469       1.2857E-10 -4.4132E-10   0.000       0.000     
     14470       1.2793E-10 -4.3778E-10   0.000       0.000     
     14471       1.2433E-10 -4.3441E-10   0.000       0.000     
     14472       1.1786E-10 -4.3134E-10   0.000       0.000     
     14473       1.0868E-10 -4.2865E-10   0.000       0.000     
     14474       9.7002E-11 -4.2645E-10   0.000       0.000     
     14475       8.3105E-11 -4.2481E-10   0.000       0.000     
     14476       6.7304E-11 -4.2383E-10   0.000       0.000     
     14477       4.9968E-11 -4.2357E-10   0.000       0.000     
     14478       3.1498E-11 -4.2410E-10   0.000       0.000     
     14479       1.2314E-11 -4.2548E-10   0.000       0.000     
     14480       1.3044E-11 -1.0043E-09   0.000       0.000     
     14481       1.4491E-11 -1.5781E-09   0.000       0.000     
     14482       1.6699E-11 -2.1435E-09   0.000       0.000     
     14483       1.9708E-11 -2.6970E-09   0.000       0.000     
     14484       2.3594E-11 -3.2342E-09   0.000       0.000     
     14485       2.8365E-11 -3.7503E-09   0.000       0.000     
     14486       3.4140E-11 -4.2399E-09   0.000       0.000     
     14487       4.0712E-11 -4.6965E-09   0.000       0.000     
     14488       4.8199E-11 -5.1133E-09   0.000       0.000     
     14489       5.5843E-11 -5.4830E-09   0.000       0.000     
     14490       6.3578E-11 -5.7987E-09   0.000       0.000     
     14491       6.9678E-11 -6.0545E-09   0.000       0.000     
     14492       7.3387E-11 -6.2472E-09   0.000       0.000     
     14493       7.2011E-11 -6.3779E-09   0.000       0.000     
     14494       6.3499E-11 -6.4536E-09   0.000       0.000     
     14495       4.5575E-11 -6.4893E-09   0.000       0.000     
     14496       1.5669E-11 -6.5062E-09   0.000       0.000     
     14497      -2.5171E-11 -6.5313E-09   0.000       0.000     
     14498      -7.6615E-11 -6.5912E-09   0.000       0.000     
     14499      -1.3327E-10 -6.7048E-09   0.000       0.000     
     14500       9.9947E-11 -6.7013E-09   0.000       0.000     
     14502       1.8238E-11 -6.5271E-09   0.000       0.000     
     14504      -3.4825E-11 -6.4850E-09   0.000       0.000     
     14506      -5.4177E-11 -6.3692E-09   0.000       0.000     
     14508      -5.1951E-11 -6.0356E-09   0.000       0.000     
     14510      -4.1324E-11 -5.4499E-09   0.000       0.000     
     14512      -2.9933E-11 -4.6474E-09   0.000       0.000     
     14514      -2.0752E-11 -3.6853E-09   0.000       0.000     
     14516      -1.4392E-11 -2.6168E-09   0.000       0.000     
     14518      -1.0632E-11 -1.4841E-09   0.000       0.000     
     14520      -9.1715E-12 -3.1916E-10   0.000       0.000     
     14522      -4.7097E-11 -3.1753E-10   0.000       0.000     
     14524      -8.0694E-11 -3.1835E-10   0.000       0.000     
     14526      -1.0683E-10 -3.2118E-10   0.000       0.000     
     14528      -1.2305E-10 -3.2550E-10   0.000       0.000     
     14530      -1.2781E-10 -3.3070E-10   0.000       0.000     
     14532      -1.2061E-10 -3.3615E-10   0.000       0.000     
     14534      -1.0209E-10 -3.4120E-10   0.000       0.000     
     14536      -7.3940E-11 -3.4526E-10   0.000       0.000     
     14538      -3.8807E-11 -3.4790E-10   0.000       0.000     
     14540      -1.9371E-18 -3.4881E-10   0.000       0.000     
     14542       3.8807E-11 -3.4790E-10   0.000       0.000     
     14544       7.3940E-11 -3.4526E-10   0.000       0.000     
     14546       1.0209E-10 -3.4120E-10   0.000       0.000     
     14548       1.2061E-10 -3.3615E-10   0.000       0.000     
     14550       1.2781E-10 -3.3070E-10   0.000       0.000     
     14552       1.2305E-10 -3.2550E-10   0.000       0.000     
     14554       1.0683E-10 -3.2118E-10   0.000       0.000     
     14556       8.0694E-11 -3.1835E-10   0.000       0.000     
     14558       4.7097E-11 -3.1753E-10   0.000       0.000     
     14560       9.1715E-12 -3.1916E-10   0.000       0.000     
     14562       1.0632E-11 -1.4841E-09   0.000       0.000     
     14564       1.4392E-11 -2.6168E-09   0.000       0.000     
     14566       2.0752E-11 -3.6853E-09   0.000       0.000     
     14568       2.9933E-11 -4.6474E-09   0.000       0.000     
     14570       4.1324E-11 -5.4499E-09   0.000       0.000     
     14572       5.1951E-11 -6.0356E-09   0.000       0.000     
     14574       5.4177E-11 -6.3692E-09   0.000       0.000     
     14576       3.4825E-11 -6.4850E-09   0.000       0.000     
     14578      -1.8238E-11 -6.5271E-09   0.000       0.000     
     14580      -9.9947E-11 -6.7013E-09   0.000       0.000     
     14581       6.6638E-11 -6.6988E-09   0.000       0.000     
     14582       3.7831E-11 -6.5837E-09   0.000       0.000     
     14583       1.1748E-11 -6.5239E-09   0.000       0.000     
     14584      -8.7551E-12 -6.4991E-09   0.000       0.000     
     14585      -2.3629E-11 -6.4817E-09   0.000       0.000     
     14586      -3.2289E-11 -6.4428E-09   0.000       0.000     
     14587      -3.6223E-11 -6.3613E-09   0.000       0.000     
     14588      -3.6567E-11 -6.2214E-09   0.000       0.000     
     14589      -3.4426E-11 -6.0172E-09   0.000       0.000     
     14590      -3.1194E-11 -5.7477E-09   0.000       0.000     
     14591      -2.7174E-11 -5.4169E-09   0.000       0.000     
     14592      -2.3334E-11 -5.0314E-09   0.000       0.000     
     14593      -1.9554E-11 -4.5983E-09   0.000       0.000     
     14594      -1.6342E-11 -4.1256E-09   0.000       0.000     
     14595      -1.3489E-11 -3.6201E-09   0.000       0.000     
     14596      -1.1212E-11 -3.0886E-09   0.000       0.000     
     14597      -9.3392E-12 -2.5365E-09   0.000       0.000     
     14598      -7.9521E-12 -1.9689E-09   0.000       0.000     
     14599      -6.9381E-12 -1.3899E-09   0.000       0.000     
     14600      -6.3421E-12 -8.0348E-10   0.000       0.000     
     14601      -6.0766E-12 -2.1282E-10   0.000       0.000     
     14602      -2.5490E-11 -2.1196E-10   0.000       0.000     
     14603      -4.4324E-11 -2.1159E-10   0.000       0.000     
     14604      -6.2107E-11 -2.1164E-10   0.000       0.000     
     14605      -7.8429E-11 -2.1207E-10   0.000       0.000     
     14606      -9.2893E-11 -2.1284E-10   0.000       0.000     
     14607      -1.0516E-10 -2.1391E-10   0.000       0.000     
     14608      -1.1493E-10 -2.1525E-10   0.000       0.000     
     14609      -1.2198E-10 -2.1679E-10   0.000       0.000     
     14610      -1.2612E-10 -2.1849E-10   0.000       0.000     
     14611      -1.2726E-10 -2.2028E-10   0.000       0.000     
     14612      -1.2535E-10 -2.2212E-10   0.000       0.000     
     14613      -1.2045E-10 -2.2395E-10   0.000       0.000     
     14614      -1.1266E-10 -2.2571E-10   0.000       0.000     
     14615      -1.0216E-10 -2.2736E-10   0.000       0.000     
     14616      -8.9196E-11 -2.2884E-10   0.000       0.000     
     14617      -7.4089E-11 -2.3011E-10   0.000       0.000     
     14618      -5.7191E-11 -2.3114E-10   0.000       0.000     
     14619      -3.8914E-11 -2.3190E-10   0.000       0.000     
     14620      -1.9695E-11 -2.3236E-10   0.000       0.000     
     14621      -1.9368E-18 -2.3252E-10   0.000       0.000     
     14622       1.9695E-11 -2.3236E-10   0.000       0.000     
     14623       3.8914E-11 -2.3190E-10   0.000       0.000     
     14624       5.7191E-11 -2.3114E-10   0.000       0.000     
     14625       7.4089E-11 -2.3011E-10   0.000       0.000     
     14626       8.9196E-11 -2.2884E-10   0.000       0.000     
     14627       1.0216E-10 -2.2736E-10   0.000       0.000     
     14628       1.1266E-10 -2.2571E-10   0.000       0.000     
     14629       1.2045E-10 -2.2395E-10   0.000       0.000     
     14630       1.2535E-10 -2.2212E-10   0.000       0.000     
     14631       1.2726E-10 -2.2028E-10   0.000       0.000     
     14632       1.2612E-10 -2.1849E-10   0.000       0.000     
     14633       1.2198E-10 -2.1679E-10   0.000       0.000     
     14634       1.1493E-10 -2.1525E-10   0.000       0.000     
     14635       1.0516E-10 -2.1391E-10   0.000       0.000     
     14636       9.2893E-11 -2.1284E-10   0.000       0.000     
     14637       7.8429E-11 -2.1207E-10   0.000       0.000     
     14638       6.2107E-11 -2.1164E-10   0.000       0.000     
     14639       4.4324E-11 -2.1159E-10   0.000       0.000     
     14640       2.5490E-11 -2.1196E-10   0.000       0.000     
     14641       6.0766E-12 -2.1282E-10   0.000       0.000     
     14642       6.3421E-12 -8.0348E-10   0.000       0.000     
     14643       6.9381E-12 -1.3899E-09   0.000       0.000     
     14644       7.9521E-12 -1.9689E-09   0.000       0.000     
     14645       9.3392E-12 -2.5365E-09   0.000       0.000     
     14646       1.1212E-11 -3.0886E-09   0.000       0.000     
     14647       1.3489E-11 -3.6201E-09   0.000       0.000     
     14648       1.6342E-11 -4.1256E-09   0.000       0.000     
     14649       1.9554E-11 -4.5983E-09   0.000       0.000     
     14650       2.3334E-11 -5.0314E-09   0.000       0.000     
     14651       2.7174E-11 -5.4169E-09   0.000       0.000     
     14652       3.1194E-11 -5.7477E-09   0.000       0.000     
     14653       3.4426E-11 -6.0172E-09   0.000       0.000     
     14654       3.6567E-11 -6.2214E-09   0.000       0.000     
     14655       3.6223E-11 -6.3613E-09   0.000       0.000     
     14656       3.2289E-11 -6.4428E-09   0.000       0.000     
     14657       2.3629E-11 -6.4817E-09   0.000       0.000     
     14658       8.7551E-12 -6.4991E-09   0.000       0.000     
     14659      -1.1748E-11 -6.5239E-09   0.000       0.000     
     14660      -3.7831E-11 -6.5837E-09   0.000       0.000     
     14661      -6.6638E-11 -6.6988E-09   0.000       0.000     
     14662       3.3311E-11 -6.6973E-09   0.000       0.000     
     14664       5.6495E-12 -6.5217E-09   0.000       0.000     
     14666      -1.2030E-11 -6.4795E-09   0.000       0.000     
     14668      -1.8154E-11 -6.3542E-09   0.000       0.000     
     14670      -1.7098E-11 -5.9991E-09   0.000       0.000     
     14672      -1.3398E-11 -5.3839E-09   0.000       0.000     
     14674      -9.5812E-12 -4.5489E-09   0.000       0.000     
     14676      -6.5792E-12 -3.5546E-09   0.000       0.000     
     14678      -4.5494E-12 -2.4559E-09   0.000       0.000     
     14680      -3.4018E-12 -1.2956E-09   0.000       0.000     
     14682      -3.0261E-12 -1.0642E-10   0.000       0.000     
     14684      -4.1633E-11 -1.0574E-10   0.000       0.000     
     14686      -7.6297E-11 -1.0594E-10   0.000       0.000     
     14688      -1.0367E-10 -1.0685E-10   0.000       0.000     
     14690      -1.2112E-10 -1.0829E-10   0.000       0.000     
     14692      -1.2693E-10 -1.1005E-10   0.000       0.000     
     14694      -1.2050E-10 -1.1190E-10   0.000       0.000     
     14696      -1.0241E-10 -1.1363E-10   0.000       0.000     
     14698      -7.4368E-11 -1.1503E-10   0.000       0.000     
     14700      -3.9090E-11 -1.1594E-10   0.000       0.000     
     14702      -1.9366E-18 -1.1625E-10   0.000       0.000     
     14704       3.9090E-11 -1.1594E-10   0.000       0.000     
     14706       7.4368E-11 -1.1503E-10   0.000       0.000     
     14708       1.0241E-10 -1.1363E-10   0.000       0.000     
     14710       1.2050E-10 -1.1190E-10   0.000       0.000     
     14712       1.2693E-10 -1.1005E-10   0.000       0.000     
     14714       1.2112E-10 -1.0829E-10   0.000       0.000     
     14716       1.0367E-10 -1.0685E-10   0.000       0.000     
     14718       7.6297E-11 -1.0594E-10   0.000       0.000     
     14720       4.1633E-11 -1.0574E-10   0.000       0.000     
     14722       3.0261E-12 -1.0642E-10   0.000       0.000     
     14724       3.4018E-12 -1.2956E-09   0.000       0.000     
     14726       4.5494E-12 -2.4559E-09   0.000       0.000     
     14728       6.5792E-12 -3.5546E-09   0.000       0.000     
     14730       9.5812E-12 -4.5489E-09   0.000       0.000     
     14732       1.3398E-11 -5.3839E-09   0.000       0.000     
     14734       1.7098E-11 -5.9991E-09   0.000       0.000     
     14736       1.8154E-11 -6.3542E-09   0.000       0.000     
     14738       1.2030E-11 -6.4795E-09   0.000       0.000     
     14740      -5.6495E-12 -6.5217E-09   0.000       0.000     
     14742      -3.3311E-11 -6.6973E-09   0.000       0.000     
     14743        0.000     -6.6967E-09  -11.59       0.000     
     14744        0.000     -6.5801E-09  -26.23       0.000     
     14745        0.000     -6.5206E-09  -3.398       0.000     
     14746        0.000     -6.4960E-09   7.614       0.000     
     14747        0.000     -6.4783E-09   10.02       0.000     
     14748        0.000     -6.4355E-09   26.62       0.000     
     14749        0.000     -6.3479E-09   15.83       0.000     
     14750        0.000     -6.1980E-09   32.93       0.000     
     14751        0.000     -5.9815E-09   16.74       0.000     
     14752        0.000     -5.6977E-09   32.46       0.000     
     14753        0.000     -5.3510E-09   15.62       0.000     
     14754        0.000     -4.9495E-09   29.71       0.000     
     14755        0.000     -4.4995E-09   14.10       0.000     
     14756        0.000     -4.0108E-09   26.88       0.000     
     14757        0.000     -3.4889E-09   12.83       0.000     
     14758        0.000     -2.9424E-09   24.73       0.000     
     14759        0.000     -2.3751E-09   11.95       0.000     
     14760        0.000     -1.7938E-09   23.36       0.000     
     14761        0.000     -1.2011E-09   11.46       0.000     
     14762        0.000     -6.0247E-10   22.71       0.000     
     14763        0.000       0.000       5.647       7.873     
     14764      -1.9727E-11   0.000       0.000       31.56     
     14765      -3.9015E-11   0.000       0.000       15.80     
     14766      -5.7359E-11   0.000       0.000       31.73     
     14767      -7.4291E-11   0.000       0.000       15.93     
     14768      -8.9418E-11   0.000       0.000       32.05     
     14769      -1.0235E-10   0.000       0.000       16.13     
     14770      -1.1279E-10   0.000       0.000       32.51     
     14771      -1.2046E-10   0.000       0.000       16.38     
     14772      -1.2518E-10   0.000       0.000       33.04     
     14773      -1.2682E-10   0.000       0.000       16.66     
     14774      -1.2533E-10   0.000       0.000       33.61     
     14775      -1.2076E-10   0.000       0.000       16.95     
     14776      -1.1319E-10   0.000       0.000       34.15     
     14777      -1.0284E-10   0.000       0.000       17.20     
     14778      -8.9920E-11   0.000       0.000       34.61     
     14779      -7.4780E-11   0.000       0.000       17.40     
     14780      -5.7774E-11   0.000       0.000       34.95     
     14781      -3.9336E-11   0.000       0.000       17.53     
     14782      -1.9915E-11   0.000       0.000       35.13     
     14783      -1.9366E-18   0.000       0.000       17.58     
     14784       1.9915E-11   0.000       0.000       35.13     
     14785       3.9336E-11   0.000       0.000       17.53     
     14786       5.7774E-11   0.000       0.000       34.95     
     14787       7.4780E-11   0.000       0.000       17.40     
     14788       8.9920E-11   0.000       0.000       34.61     
     14789       1.0284E-10   0.000       0.000       17.20     
     14790       1.1319E-10   0.000       0.000       34.15     
     14791       1.2076E-10   0.000       0.000       16.95     
     14792       1.2533E-10   0.000       0.000       33.61     
     14793       1.2682E-10   0.000       0.000       16.66     
     14794       1.2518E-10   0.000       0.000       33.04     
     14795       1.2046E-10   0.000       0.000       16.38     
     14796       1.1279E-10   0.000       0.000       32.51     
     14797       1.0235E-10   0.000       0.000       16.13     
     14798       8.9418E-11   0.000       0.000       32.05     
     14799       7.4291E-11   0.000       0.000       15.93     
     14800       5.7359E-11   0.000       0.000       31.73     
     14801       3.9015E-11   0.000       0.000       15.80     
     14802       1.9727E-11   0.000       0.000       31.56     
     14803        0.000       0.000      -5.647       7.873     
     14804        0.000     -6.0247E-10  -22.71       0.000     
     14805        0.000     -1.2011E-09  -11.46       0.000     
     14806        0.000     -1.7938E-09  -23.36       0.000     
     14807        0.000     -2.3751E-09  -11.95       0.000     
     14808        0.000     -2.9424E-09  -24.73       0.000     
     14809        0.000     -3.4889E-09  -12.83       0.000     
     14810        0.000     -4.0108E-09  -26.88       0.000     
     14811        0.000     -4.4995E-09  -14.10       0.000     
     14812        0.000     -4.9495E-09  -29.71       0.000     
     14813        0.000     -5.3510E-09  -15.62       0.000     
     14814        0.000     -5.6977E-09  -32.46       0.000     
     14815        0.000     -5.9815E-09  -16.74       0.000     
     14816        0.000     -6.1980E-09  -32.93       0.000     
     14817        0.000     -6.3479E-09  -15.83       0.000     
     14818        0.000     -6.4355E-09  -26.62       0.000     
     14819        0.000     -6.4783E-09  -10.02       0.000     
     14820        0.000     -6.4960E-09  -7.614       0.000     
     14821        0.000     -6.5206E-09   3.398       0.000     
     14822        0.000     -6.5801E-09   26.23       0.000     
     14823        0.000     -6.6967E-09   11.59       0.000     

 MAXIMUM         6.1317E-09   0.000       32.93       35.13    
 AT NODE               244       14763       14750       14784

 MINIMUM        -5.8168E-09 -1.4812E-07  -32.93       0.000    
 AT NODE               324           1       14816           1


          THE ANALYSIS HAS BEEN COMPLETED



                              ANALYSIS COMPLETE
                              WITH   594 WARNING MESSAGES ON THE DAT FILE



     JOB TIME SUMMARY
       USER TIME (SEC)      =   4.0000    
       SYSTEM TIME (SEC)    =  0.60000    
       TOTAL CPU TIME (SEC) =   4.6000    
       WALLCLOCK TIME (SEC) =          8
