1

  ABAQUS VERSION 6.4-1                                     DATE 07-Apr-2008   TIME 17:36:38        PAGE     1
 





    AAAAAA     BBBBBBBBB      AAAAAA      QQQQQQQQ    U        U    SSSSSSSS
   A      A    B        B    A      A    Q        Q   U        U   S
  A        A   B        B   A        A   Q        Q   U        U   S
  A        A   B        B   A        A   Q        Q   U        U   S
  AAAAAAAAAA   BBBBBBBBB    AAAAAAAAAA   Q        Q   U        U    SSSSSSSS
  A        A   B        B   A        A   Q    Q   Q   U        U            S
  A        A   B        B   A        A   Q     Q  Q   U        U            S
  A        A   B        B   A        A   Q      Q Q   U        U            S
  A        A   BBBBBBBBB    A        A    QQQQQQQQ     UUUUUUUU     SSSSSSSS
 



                      This program has been developed by
 
                                  ABAQUS, Inc.
                                1080 Main Street
                             Pawtucket, R.I. 02860
 


                   Available for internal use at University of Virginia. 
                   Support of your usage is not included in the license
                   price.  To purchase support, or send information to ABAQUS, Inc.
                   about a suspected error, please follow the procedures
                   described in the ABAQUS academic support instructions
                   document. A copy of this document has been sent to the
                   designated user at your site. Additional copies can be
                   obtained by contacting ABAQUS, Inc. or your local ABAQUS
                   representative.

                   Should you have any questions concerning the terms of
                   this academic license, please contact the designated
                   user at your university, Brad Sayler
 
                        On machine d107-14 
                        you are authorized to run
                        ABAQUS/Standard until 31-Dec-2008

                        Your site id is: 08UVA_X 


 
                    For assistance or any other information contact

                           ABAQUS, INC.
                           1080 Main Street
                           Pawtucket, RI 02860-4847
                           U.S.A.
                           Tel: (1) 401 727 4200
                           Fax: (1) 401 727 4208
                           E-mail: info@abaqus.com
                           Web: http://www.abaqus.com
                           Technical support: support@abaqus.com 


                * * * * * * * * * * * * * * * * * * * * * * * * * * * * * * 
                *                                                         * 
                *                   *****************                     * 
                *                   *  N O T I C E  *                     * 
                *                   *****************                     * 
                *                                                         * 
                *                                                         * 
                *                 ABAQUS VERSION 6.4-1                    * 
                *                                                         * 
                *          BUILD ID: 2003_09_29-11.18.28 46457            * 
                *                                                         * 
                *                                                         * 
                *  Please make sure you are using version 6.4 manuals     * 
                *  plus the notes accompanying this release.              * 
                *                                                         * 
                *                                                         * 
                *   This program may not be used for commercial purposes  * 
                *           without payment of a monthly charge.          * 
                *                                                         * 
                * * * * * * * * * * * * * * * * * * * * * * * * * * * * * * 


 



     PROCESSING PART, INSTANCE, AND ASSEMBLY INFORMATION
   *******************************************************


     END PROCESSING PART, INSTANCE, AND ASSEMBLY INFORMATION
   ***********************************************************




     OPTIONS BEING PROCESSED
   ***************************


  *Heading
          2-D plate with hole: 4-noded elements                                                                                                                                                                                                                           
  *NODE
  *NODE,NSET=N1
  *NODE,NSET=N2
  *NODE,NSET=N3
  *NODE,NSET=N4
  *NODE,NSET=N5
  *NGEN,NSET=ARC1,LINE=C
  *NGEN,NSET=ROW1
  *NGEN,NSET=ROW1
  *NFILL,NSET=ALL, BIAS= 1.000
  *ELEMENT, ELSET=ALL, TYPE=CPS4
  *ELGEN, ELSET=ALL
  *ELSET,ELSET=TOP,GENERATE
  *NSET, NSET=YAXIS,GENERATE
  *NSET, NSET=XAXIS,GENERATE
  *MATERIAL,NAME=ALUM
  *ELASTIC
  *SOLID SECTION, ELSET=ALL, MAT=ALUM
  *BOUNDARY
  *SOLID SECTION, ELSET=ALL, MAT=ALUM
  *STEP
  *STEP
  *STEP
  *STATIC
  *BOUNDARY
  *DLOAD
  *EL PRINT
  *END STEP
  *STEP
  *STATIC
  *BOUNDARY
  *NODE PRINT
  *END STEP
1

   ABAQUS VERSION 6.4-1                                 DATE 07-Apr-2008       TIME 17:36:38        PAGE    2
   For use at None under academic license from ABAQUS, Inc.                                                                        

     2-D plate with hole: 4-noded elements                                           



                            P R O B L E M   S I Z E


          NUMBER OF ELEMENTS IS                                    80
          NUMBER OF NODES IS                                       99
          NUMBER OF NODES DEFINED BY THE USER                      99
          TOTAL NUMBER OF VARIABLES IN THE MODEL                  198
          (DEGREES OF FREEDOM PLUS ANY LAGRANGE MULTIPLIER VARIABLES)



                              END OF USER INPUT PROCESSING



     JOB TIME SUMMARY
       USER TIME (SEC)      =  0.30000    
       SYSTEM TIME (SEC)    =  0.10000    
       TOTAL CPU TIME (SEC) =  0.40000    
       WALLCLOCK TIME (SEC) =          0
1

   ABAQUS VERSION 6.4-1                                     DATE 07-Apr-2008   TIME 17:36:39        PAGE    1
   For use at None under academic license from ABAQUS, Inc.                                                                        

     2-D plate with hole: 4-noded elements                                                     STEP    1  INCREMENT    1
                                                                                          TIME COMPLETED IN THIS STEP   0.00    


                        S T E P       1     S T A T I C   A N A L Y S I S


                                                                                          

     AUTOMATIC TIME CONTROL WITH -
          A SUGGESTED INITIAL TIME INCREMENT OF                 1.00    
          AND A TOTAL TIME PERIOD OF                            1.00    
          THE MINIMUM TIME INCREMENT ALLOWED IS                1.000E-06
          THE MAXIMUM TIME INCREMENT ALLOWED IS                 1.00    

     LINEAR EQUATION SOLVER TYPE         DIRECT SPARSE
  
  
  
                   M E M O R Y   A N D   D I S K   E S T I M A T E
  
  
           SUMMARY FOR CURRENT NODE ORDERING
          (NOTE THAT IF NODE ORDERING CHANGES THE SIZE ESTIMATES FOR THE STEPS WILL CHANGE)
  
  
           STEP   MAXIMUM DOF     FLOATING PT    MINIMUM MEMORY      MEMORY TO      REQUIRED DISKSPACE
                  WAVEFRONT       OPERATIONS       REQUIRED        MINIMIZE I/O
                                PER ITERATION     (MBYTES)           (MBYTES)          (KBYTES)
  
             1          32        7.59E+004         14.58              14.58             60.82
          ----    ---------      ------------    -------------     -------------      -------------
           MAX          32        7.59E+004         14.58              14.58             60.82
  
  
          THE TABLE ABOVE PROVIDES A STEP BY STEP SUMMARY OF SOME BASIC SIZING INFORMATION
          FOR THE PROBLEM. SOME FURTHER DESCRIPTION OF THE PARAMETERS GIVEN FOLLOWS:
  
          (1) MAXIMUM DOF WAVEFRONT - SIZE OF THE BIGGEST FRONT IN THE EQUATION SOLVER.
              PROVIDES A BASIC SIZING OF THE MOST MEMORY INTENSIVE SEGMENT OF SOLVER.
          (2) FLOATING POINT OPERATIONS PER ITERATION - MEASURE OF THE NUMBER OF FLOATING
              POINT OPERATIONS REQUIRED FOR A SINGLE SOLVER PASS. ON A GIVEN PLATFORM
              THE TIME REQUIRED FOR A SOLVER PASS WILL BE ROUGHLY A LINEAR FUNCTION
              OF THIS VALUE.
              NOTE - EXCEPT FOR THE FIRST STEP, THE VALUE IN THIS TABLE DOES NOT INCLUDE
                     ADDITIONAL FLOATING POINT OPERATIONS THAT ARE REQUIRED IN MULTIPLE LOAD
                     CASE STEPS WHEN CONSTRAINTS CHANGE FROM LOAD CASE TO LOAD CASE.  THIS
                     SITUATION CAUSES A REORDERING TO BE PERFORMED, AT WHICH TIME AN UPPER
                     BOUND ON THE NUMBER OF ADDITIONAL FLOATING POINT OPERATIONS WILL BE
                     CALCULATED AND INCLUDED UNDER THE ESTIMATE SUMMARIES FOR THE RELEVANT
                     STEPS (SEE NOTE BELOW ON REORDERING).
          (3) MINIMUM MEMORY REQUIRED - MINIMUM POSSIBLE MEMORY VALUE FOR standard_memory
              THAT ENABLES ABAQUS TO SOLVE THE PROBLEM. USE OF MEMORY WILL BE MINIMIZED BY
              WRITING AS MUCH INFORMATION AS POSSIBLE TO DISK WHICH WILL INCREASE I/O TIME.
          (4) MEMORY TO MINIMIZE I/O - VALUE OF standard_memory THAT ALLOWS ABAQUS TO KEEP
              ALL SIGNIFICANT SCRATCH FILES IN MEMORY. THIS WILL MINIMIZE I/O TIME FOR THE USER
              WITH ACCESS TO A LARGE AMOUNT OF MEMORY.
          (5) REQUIRED DISKSPACE - AMOUNT OF DISK REQUIRED FOR SCRATCH FILES. THESE WILL BE
              DELETED AT THE END OF THE ANALYSIS.
  
  
           NOTE - WHENEVER POSSIBLE THE USER SHOULD SET standard_memory TO BE LESS THAN THE
          PHYSICAL MEMORY ON THE MACHINE. UNLESS NECESSARY USERS SHOULD NOT MAKE USE
          OF VIRTUAL MEMORY EVEN IN AN ATTEMPT TO KEEP SCRATCH FILES IN MEMORY.
  
           NOTE - IF A REORDERING IS PERFORMED (THIS WILL GENERALLY BE DONE ONLY FOR 3D-3D
          LARGE SLIDING PROBLEMS), THE SIZE ESTIMATES DONE AT THIS TIME WILL NO LONGER BE VALID.
          THE ESTIMATES WILL BE REDONE IN THE EVENT OF A REORDERING AND A NEW SUMMARY WILL BE
          BE PRINTED FOR THE REMAINING STEPS.
  
  
  
           S I Z E   E S T I M A T E S   F O R   C U R R E N T   S T E P
  
          NUMBER OF EQUATIONS                        198
          MAX DOF WAVEFRONT                          32
          FLOATING POINT OPS PER SOLVER ITERATION   7.59E+004
          MEMORY USED FOR STEP                      14.64 MBYTES
  
  
           ESTIMATED FILE SIZES
  
           FILE           KWORDS           KBYTES
  
          .fct             3.625           28.320
          .nck             0.640            5.000
          .opr             3.520           27.500
          -------        -------          -------
           TOTAL           7.785           60.820
  


                                INCREMENT     1 SUMMARY


 TIME INCREMENT COMPLETED   1.00    ,  FRACTION OF STEP COMPLETED   1.00    
 STEP TIME COMPLETED        1.00    ,  TOTAL TIME COMPLETED         1.00    



                                                  E L E M E N T   O U T P U T





   THE FOLLOWING TABLE IS PRINTED FOR ALL ELEMENTS WITH TYPE CPS4 AT THE INTEGRATION POINTS

    ELEMENT  PT FOOT-       S11         S22         S12         E11         E22         E12     
                NOTE 

          1   1        -1.7386E+07  2.3251E+09  2.6100E+08 -1.0213E-02  3.3290E-02  9.6943E-03  
          1   2        -1.1688E+08  2.0119E+09  2.9346E+08 -1.0292E-02  2.9243E-02  1.0900E-02  
          1   3         3.8457E+08  2.2428E+09 -5.4304E+08 -4.1182E-03  3.0392E-02 -2.0170E-02  
          1   4         2.7906E+08  1.9516E+09 -4.8819E+08 -4.3774E-03  2.6684E-02 -1.8133E-02  
          2   1        -1.7576E+08  1.6953E+09 -2.0459E+08 -9.7764E-03  2.4972E-02 -7.5992E-03  
          2   2        -3.0781E+08  1.4550E+09 -1.2003E+08 -1.0633E-02  2.2105E-02 -4.4582E-03  
          2   3         4.7512E+08  1.5414E+09 -5.8471E+08  1.8150E-04  1.9984E-02 -2.1718E-02  
          2   4         3.4775E+08  1.3380E+09 -5.0392E+08 -7.6653E-04  1.7624E-02 -1.8717E-02  
          3   1         7.1304E+06  9.7010E+08 -3.2503E+08 -4.0557E-03  1.3828E-02 -1.2072E-02  
          3   2        -1.1311E+08  8.2158E+08 -2.5400E+08 -5.1369E-03  1.2222E-02 -9.4342E-03  
          3   3         3.8186E+08  8.3248E+08 -4.2965E+08  1.8874E-03  1.0256E-02 -1.5958E-02  
          3   4         2.7617E+08  7.0970E+08 -3.6873E+08  9.0376E-04  8.9550E-03 -1.3696E-02  
          4   1         5.3181E+07  4.1396E+08 -2.1803E+08 -1.0144E-03  5.6857E-03 -8.0983E-03  
          4   2        -7.0251E+06  3.6350E+08 -1.8784E+08 -1.6582E-03  5.2230E-03 -6.9770E-03  
          4   3         1.8517E+08  3.7820E+08 -2.1179E+08  1.0244E-03  4.6093E-03 -7.8664E-03  
          4   4         1.3334E+08  3.3594E+08 -1.8638E+08  4.6514E-04  4.2277E-03 -6.9228E-03  
          5   1        -9.0440E+07  6.5018E+07 -3.2076E+07 -1.5706E-03  1.3164E-03 -1.1914E-03  
          5   2        -8.0554E+07  8.7339E+07 -4.0842E+07 -1.5251E-03  1.5929E-03 -1.5170E-03  
          5   3        -7.7070E+07  1.3959E+08 -1.5160E+07 -1.6992E-03  2.3244E-03 -5.6309E-04  
          5   4        -6.5473E+07  1.6535E+08 -2.5717E+07 -1.6440E-03  2.6427E-03 -9.5518E-04  
          6   1        -4.7034E+08 -2.2961E+08  2.1252E+08 -5.7351E-03 -1.2643E-03  7.8936E-03  
          6   2        -3.7028E+08 -1.3874E+08  1.6129E+08 -4.6951E-03 -3.9506E-04  5.9908E-03  
          6   3        -5.6878E+08  1.0850E+08  1.3583E+08 -8.5905E-03  3.9877E-03  5.0451E-03  
          6   4        -4.4796E+08  2.1164E+08  7.5929E+07 -7.3064E-03  4.9432E-03  2.8202E-03  
          7   1        -1.1422E+09 -4.2622E+08  4.4223E+08 -1.4491E-02 -1.1936E-03  1.6426E-02  
          7   2        -9.4618E+08 -2.9981E+08  3.6260E+08 -1.2232E-02 -2.2789E-04  1.3468E-02  
          7   3        -1.2756E+09  2.4382E+08  8.3046E+07 -1.9267E-02  8.9498E-03  3.0846E-03  
          7   4        -1.0443E+09  3.7429E+08 -6.8738E+05 -1.6523E-02  9.8225E-03 -2.5531E-05  
          8   1        -1.8443E+09 -3.9724E+08  5.0331E+08 -2.4645E-02  2.2293E-03  1.8694E-02  
          8   2        -1.5451E+09 -2.8814E+08  4.4622E+08 -2.0837E-02  2.5054E-03  1.6574E-02  
          8   3        -1.9234E+09  3.3440E+07 -3.2171E+08 -2.7621E-02  8.7210E-03 -1.1949E-02  
          8   4        -1.6018E+09  1.3583E+08 -3.5588E+08 -2.3465E-02  8.8053E-03 -1.3218E-02  
          9   1         7.5430E+06  1.8532E+09  3.2181E+08 -7.8346E-03  2.6442E-02  1.1953E-02  
          9   2        -8.1672E+07  1.5729E+09  3.5146E+08 -7.9076E-03  2.2820E-02  1.3054E-02  
          9   3         4.1277E+08  1.8115E+09 -4.4381E+08 -1.8667E-03  2.4109E-02 -1.6484E-02  
          9   4         3.1713E+08  1.5489E+09 -3.9383E+08 -2.1075E-03  2.0767E-02 -1.4628E-02  
         10   1        -2.1229E+08  1.3531E+09 -3.5515E+07 -8.8315E-03  2.0239E-02 -1.3191E-03  
         10   2        -3.2822E+08  1.1429E+09  3.8759E+07 -9.5873E-03  1.7734E-02  1.4396E-03  
         10   3         4.2061E+08  1.2676E+09 -4.0225E+08  5.7610E-04  1.6306E-02 -1.4941E-02  
         10   4         3.0738E+08  1.0876E+09 -3.3050E+08 -2.7009E-04  1.4220E-02 -1.2276E-02  
         11   1        -8.3175E+07  8.0803E+08 -1.4725E+08 -4.6512E-03  1.1900E-02 -5.4693E-03  
         11   2        -1.7931E+08  6.8553E+08 -8.9878E+07 -5.4995E-03  1.0562E-02 -3.3383E-03  
         11   3         2.4359E+08  7.1833E+08 -2.5778E+08  4.0129E-04  9.2179E-03 -9.5749E-03  
         11   4         1.5849E+08  6.1628E+08 -2.0807E+08 -3.7703E-04  8.1248E-03 -7.7282E-03  
         12   1        -5.2586E+07  4.4034E+08 -1.1486E+08 -2.6384E-03  6.5160E-03 -4.2661E-03  
         12   2        -8.7806E+07  3.9786E+08 -9.4131E+07 -2.9595E-03  6.0600E-03 -3.4963E-03  
         12   3         1.1912E+07  3.9285E+08 -1.3573E+08 -1.5135E-03  5.5612E-03 -5.0414E-03  
         12   4        -1.8373E+07  3.5731E+08 -1.1804E+08 -1.7938E-03  5.1832E-03 -4.3845E-03  
         13   1        -1.3023E+08  2.2800E+08 -6.2447E+07 -2.8376E-03  3.8153E-03 -2.3194E-03  
         13   2        -1.2145E+08  2.3191E+08 -6.5825E+07 -2.7289E-03  3.8334E-03 -2.4449E-03  
         13   3        -1.4968E+08  2.2726E+08 -7.2767E+07 -3.1122E-03  3.8880E-03 -2.7028E-03  
         13   4        -1.3911E+08  2.3188E+08 -7.6667E+07 -2.9811E-03  3.9088E-03 -2.8476E-03  
         14   1        -3.8177E+08 -7.4190E+07  6.3999E+07 -5.1359E-03  5.7631E-04  2.3771E-03  
         14   2        -3.0011E+08 -4.1707E+06  2.3572E+07 -4.2695E-03  1.2266E-03  8.7555E-04  
         14   3        -4.4788E+08  2.0149E+08 -2.1121E+07 -7.2618E-03  4.7979E-03 -7.8450E-04  
         14   4        -3.4993E+08  2.8049E+08 -6.7843E+07 -6.2011E-03  5.5067E-03 -2.5199E-03  
         15   1        -8.7645E+08 -3.4612E+08  2.5937E+08 -1.1037E-02 -1.1883E-03  9.6338E-03  
         15   2        -7.0425E+08 -2.3514E+08  1.8946E+08 -9.0530E-03 -3.4095E-04  7.0369E-03  
         15   3        -9.4685E+08  2.9224E+08 -8.6371E+07 -1.4779E-02  8.2328E-03 -3.2080E-03  
         15   4        -7.4610E+08  4.0544E+08 -1.5902E+08 -1.2396E-02  8.9896E-03 -5.9065E-03  
         16   1        -1.3972E+09 -4.0990E+08  3.9830E+08 -1.8203E-02  1.3225E-04  1.4794E-02  
         16   2        -1.1279E+09 -3.1130E+08  3.4647E+08 -1.4779E-02  3.8684E-04  1.2869E-02  
         16   3        -1.4355E+09  2.0238E+07 -3.8582E+08 -2.0594E-02  6.4413E-03 -1.4330E-02  
         16   4        -1.1482E+09  1.1184E+08 -4.1686E+08 -1.6882E-02  6.5185E-03 -1.5483E-02  
         17   1         1.7240E+07  1.4246E+09  3.7228E+08 -5.8593E-03  2.0278E-02  1.3828E-02  
         17   2        -6.4299E+07  1.1688E+09  3.9980E+08 -5.9275E-03  1.6972E-02  1.4850E-02  
         17   3         4.2782E+08  1.4155E+09 -3.6845E+08  4.5258E-05  1.8388E-02 -1.3685E-02  
         17   4         3.3959E+08  1.1743E+09 -3.2213E+08 -1.8139E-04  1.5320E-02 -1.1965E-02  
         18   1        -2.4503E+08  1.0418E+09  9.3005E+07 -7.9651E-03  1.5932E-02  3.4545E-03  
         18   2        -3.4841E+08  8.5522E+08  1.5926E+08 -8.6425E-03  1.3711E-02  5.9153E-03  
         18   3         3.7504E+08  1.0103E+09 -2.6322E+08  1.0277E-03  1.2826E-02 -9.7767E-03  
         18   4         2.7289E+08  8.4875E+08 -1.9857E+08  2.6097E-04  1.0955E-02 -7.3753E-03  
         19   1        -1.4032E+08  6.5145E+08 -2.0698E+07 -4.7965E-03  9.9077E-03 -7.6878E-04  
         19   2        -2.1864E+08  5.4800E+08  2.6608E+07 -5.4719E-03  8.7656E-03  9.8830E-04  
         19   3         1.4615E+08  5.9484E+08 -1.3468E+08 -4.6148E-04  7.8713E-03 -5.0026E-03  
         19   4         7.6380E+07  5.0806E+08 -9.3271E+07 -1.0863E-03  6.9306E-03 -3.4643E-03  
         20   1        -9.7912E+07  4.1815E+08 -4.6600E+07 -3.1908E-03  6.3932E-03 -1.7309E-03  
         20   2        -1.2417E+08  3.7527E+08 -2.8501E+07 -3.3822E-03  5.8932E-03 -1.0586E-03  
         20   3        -6.2812E+07  3.6357E+08 -8.4733E+07 -2.4555E-03  5.4631E-03 -3.1472E-03  
         20   4        -8.5341E+07  3.2766E+08 -6.9097E+07 -2.6234E-03  5.0465E-03 -2.5664E-03  
         21   1        -1.2411E+08  2.9049E+08 -7.5243E+07 -3.0179E-03  4.6818E-03 -2.7947E-03  
         21   2        -1.1130E+08  2.8881E+08 -7.8129E+07 -2.8278E-03  4.6029E-03 -2.9019E-03  
         21   3        -1.6473E+08  2.5412E+08 -1.0214E+08 -3.4424E-03  4.3363E-03 -3.7937E-03  
         21   4        -1.4925E+08  2.5247E+08 -1.0530E+08 -3.2142E-03  4.2463E-03 -3.9110E-03  
         22   1        -2.8028E+08  3.2434E+07 -3.6508E+07 -4.1430E-03  1.6645E-03 -1.3560E-03  
         22   2        -2.1217E+08  8.7117E+07 -6.8988E+07 -3.4044E-03  2.1538E-03 -2.5624E-03  
         22   3        -3.2495E+08  2.5668E+08 -1.2611E+08 -5.7422E-03  5.0595E-03 -4.6839E-03  
         22   4        -2.4375E+08  3.1807E+08 -1.6320E+08 -4.8453E-03  5.5885E-03 -6.0619E-03  
         23   1        -6.2627E+08 -2.8097E+08  1.2419E+08 -7.7426E-03 -1.3298E-03  4.6126E-03  
         23   2        -4.7253E+08 -1.8185E+08  6.1748E+07 -5.9712E-03 -5.7266E-04  2.2935E-03  
         23   3        -6.4761E+08  3.3424E+08 -2.1111E+08 -1.0684E-02  7.5503E-03 -7.8413E-03  
         23   4        -4.7033E+08  4.3424E+08 -2.7529E+08 -8.5801E-03  8.2192E-03 -1.0225E-02  
         24   1        -9.8696E+08 -4.1011E+08  3.2024E+08 -1.2342E-02 -1.6289E-03  1.1895E-02  
         24   2        -7.3968E+08 -3.1926E+08  2.7233E+08 -9.1986E-03 -1.3908E-03  1.0115E-02  
         24   3        -9.9274E+08  2.2361E+07 -4.3838E+08 -1.4278E-02  4.5741E-03 -1.6283E-02  
         24   4        -7.3057E+08  1.0604E+08 -4.6706E+08 -1.0891E-02  4.6458E-03 -1.7348E-02  
         25   1         1.6218E+07  1.0286E+09  4.1449E+08 -4.1766E-03  1.4625E-02  1.5395E-02  
         25   2        -5.9631E+07  7.9083E+08  4.4036E+08 -4.2411E-03  1.1553E-02  1.6356E-02  
         25   3         4.3362E+08  1.0465E+09 -3.1305E+08  1.7095E-03  1.3092E-02 -1.1627E-02  
         25   4         3.5090E+08  8.2104E+08 -2.6948E+08  1.4941E-03  1.0225E-02 -1.0009E-02  
         26   1        -2.7376E+08  7.5734E+08  1.8779E+08 -7.1566E-03  1.1992E-02  6.9749E-03  
         26   2        -3.6708E+08  5.8959E+08  2.4761E+08 -7.7708E-03  9.9958E-03  9.1968E-03  
         26   3         3.3630E+08  7.6932E+08 -1.6037E+08  1.5071E-03  9.5491E-03 -5.9567E-03  
         26   4         2.4309E+08  6.2250E+08 -1.0144E+08  8.0488E-04  7.8510E-03 -3.7679E-03  
         27   1        -1.7133E+08  5.0332E+08  6.3985E+07 -4.6047E-03  7.9246E-03  2.3766E-03  
         27   2        -2.3691E+08  4.1376E+08  1.0405E+08 -5.1576E-03  6.9261E-03  3.8649E-03  
         27   3         8.5464E+07  4.7136E+08 -5.1996E+07 -7.9918E-04  6.3674E-03 -1.9313E-03  
         27   4         2.6691E+07  3.9571E+08 -1.6577E+07 -1.3146E-03  5.5387E-03 -6.1571E-04  
         28   1        -1.0744E+08  3.6289E+08 -2.4745E+06 -3.0900E-03  5.6446E-03 -9.1908E-05  
         28   2        -1.3155E+08  3.1847E+08  1.5337E+07 -3.2442E-03  5.1134E-03  5.6966E-04  
         28   3        -7.7758E+07  3.1137E+08 -5.1202E+07 -2.4453E-03  4.7814E-03 -1.9018E-03  
         28   4        -9.8473E+07  2.7404E+08 -3.5696E+07 -2.5812E-03  4.3368E-03 -1.3259E-03  
         29   1        -9.4089E+07  2.9177E+08 -7.5674E+07 -2.5946E-03  4.5714E-03 -2.8108E-03  
         29   2        -7.7424E+07  2.8993E+08 -7.9527E+07 -2.3486E-03  4.4737E-03 -2.9538E-03  
         29   3        -1.4151E+08  2.4510E+08 -1.1180E+08 -3.0721E-03  4.1079E-03 -4.1527E-03  
         29   4        -1.2147E+08  2.4336E+08 -1.1601E+08 -2.7782E-03  3.9971E-03 -4.3089E-03  
         30   1        -1.7680E+08  9.7207E+07 -9.7084E+07 -2.9423E-03  2.1464E-03 -3.6060E-03  
         30   2        -1.1869E+08  1.4089E+08 -1.2380E+08 -2.2994E-03  2.5214E-03 -4.5984E-03  
         30   3        -2.0581E+08  2.8233E+08 -1.8847E+08 -4.1502E-03  4.9153E-03 -7.0002E-03  
         30   4        -1.3695E+08  3.3115E+08 -2.1864E+08 -3.3756E-03  5.3177E-03 -8.1209E-03  
         31   1        -3.9182E+08 -2.2740E+08  2.8522E+07 -4.6228E-03 -1.5694E-03  1.0594E-03  
         31   2        -2.5275E+08 -1.3770E+08 -2.7977E+07 -3.0206E-03 -8.8394E-04 -1.0391E-03  
         31   3        -3.7401E+08  3.6988E+08 -2.9871E+08 -6.9283E-03  6.8870E-03 -1.1095E-02  
         31   4        -2.1527E+08  4.5947E+08 -3.5621E+08 -5.0444E-03  7.4864E-03 -1.3231E-02  
         32   1        -6.0432E+08 -4.0213E+08  2.6489E+08 -6.9097E-03 -3.1548E-03  9.8386E-03  
         32   2        -3.7280E+08 -3.1691E+08  2.1986E+08 -3.9675E-03 -2.9296E-03  8.1662E-03  
         32   3        -5.8332E+08  3.4897E+07 -4.8166E+08 -8.4828E-03  2.9985E-03 -1.7890E-02  
         32   4        -3.3926E+08  1.1284E+08 -5.0855E+08 -5.3302E-03  3.0660E-03 -1.8889E-02  
         33   1         8.0719E+06  6.5685E+08  4.4979E+08 -2.6997E-03  9.3489E-03  1.6707E-02  
         33   2        -6.3647E+07  4.3212E+08  4.7436E+08 -2.7612E-03  6.4459E-03  1.7619E-02  
         33   3         4.3270E+08  6.9766E+08 -2.7505E+08  3.1915E-03  8.1122E-03 -1.0216E-02  
         33   4         3.5401E+08  4.8344E+08 -2.3356E+08  2.9855E-03  5.3891E-03 -8.6750E-03  
         34   1        -2.9796E+08  4.9676E+08  2.5337E+08 -6.3856E-03  8.3736E-03  9.4107E-03  
         34   2        -3.8304E+08  3.4434E+08  3.0792E+08 -6.9478E-03  6.5607E-03  1.1437E-02  
         34   3         3.0430E+08  5.4449E+08 -8.8481E+07  2.0136E-03  6.4743E-03 -3.2864E-03  
         34   4         2.1847E+08  4.0979E+08 -3.4260E+07  1.3647E-03  4.9178E-03 -1.2725E-03  
         35   1        -1.8235E+08  3.6581E+08  1.1455E+08 -4.1728E-03  6.0074E-03  4.2546E-03  
         35   2        -2.3847E+08  2.8718E+08  1.4915E+08 -4.6375E-03  5.1247E-03  5.5397E-03  
         35   3         5.3180E+07  3.5402E+08 -1.5667E+06 -7.5752E-04  4.8295E-03 -5.8190E-05  
         35   4         2.5743E+06  2.8717E+08  2.9288E+07 -1.1940E-03  4.0915E-03  1.0879E-03  
         36   1        -9.6939E+07  2.9153E+08  2.3460E+07 -2.6342E-03  4.5801E-03  8.7136E-04  
         36   2        -1.2067E+08  2.4789E+08  4.0970E+07 -2.7862E-03  4.0584E-03  1.5218E-03  
         36   3        -6.0777E+07  2.5166E+08 -2.9893E+07 -1.9468E-03  3.8556E-03 -1.1103E-03  
         36   4        -8.1256E+07  2.1480E+08 -1.4577E+07 -2.0814E-03  3.4168E-03 -5.4145E-04  
         37   1        -5.6331E+07  2.6000E+08 -6.7725E+07 -1.9190E-03  3.9557E-03 -2.5155E-03  
         37   2        -3.8386E+07  2.5940E+08 -7.2256E+07 -1.6601E-03  3.8702E-03 -2.6838E-03  
         37   3        -9.9293E+07  2.1655E+08 -1.0665E+08 -2.3466E-03  3.5192E-03 -3.9614E-03  
         37   4        -7.7836E+07  2.1624E+08 -1.1163E+08 -2.0387E-03  3.4227E-03 -4.1461E-03  
         38   1        -7.8749E+07  1.3040E+08 -1.2586E+08 -1.6838E-03  2.2003E-03 -4.6750E-03  
         38   2        -2.8908E+07  1.6579E+08 -1.4809E+08 -1.1235E-03  2.4923E-03 -5.5004E-03  
         38   3        -9.4821E+07  2.8548E+08 -2.1594E+08 -2.5781E-03  4.4847E-03 -8.0206E-03  
         38   4        -3.6095E+07  3.2486E+08 -2.4077E+08 -1.9079E-03  4.7956E-03 -8.9429E-03  
         39   1        -1.7339E+08 -1.8421E+08 -3.3499E+07 -1.6875E-03 -1.8885E-03 -1.2443E-03  
         39   2        -4.6357E+07 -1.0221E+08 -8.5139E+07 -2.2419E-04 -1.2615E-03 -3.1623E-03  
         39   3        -1.2347E+08  3.9886E+08 -3.5409E+08 -3.4732E-03  6.2271E-03 -1.3152E-02  
         39   4         2.0177E+07  4.7998E+08 -4.0616E+08 -1.7688E-03  6.7703E-03 -1.5086E-02  
         40   1        -2.4175E+08 -3.8870E+08  2.2946E+08 -1.7877E-03 -4.5168E-03  8.5228E-03  
         40   2        -2.1005E+07 -3.0746E+08  1.8654E+08  1.0176E-03 -4.3022E-03  6.9286E-03  
         40   3        -1.9815E+08  5.3924E+07 -5.1717E+08 -3.0618E-03  1.6195E-03 -1.9209E-02  
         40   4         3.3382E+07  1.2786E+08 -5.4267E+08 -7.1093E-05  1.6835E-03 -2.0156E-02  
         41   1        -4.3372E+06  3.0278E+08  4.7903E+08 -1.3596E-03  4.3440E-03  1.7792E-02  
         41   2        -7.3195E+07  8.6939E+07  5.0253E+08 -1.4182E-03  1.5557E-03  1.8665E-02  
         41   3         4.2708E+08  3.6333E+08 -2.5300E+08  4.5439E-03  3.3601E-03 -9.3972E-03  
         41   4         3.5123E+08  1.5665E+08 -2.1306E+08  4.3463E-03  7.3261E-04 -7.9135E-03  
         42   1        -3.1712E+08  2.5797E+08  2.9277E+08 -5.6359E-03  5.0445E-03  1.0874E-02  
         42   2        -3.9523E+08  1.1856E+08  3.4287E+08 -6.1543E-03  3.3875E-03  1.2735E-02  
         42   3         2.7866E+08  3.3581E+08 -4.3333E+07  2.5417E-03  3.6031E-03 -1.6095E-03  
         42   4         1.9911E+08  2.1149E+08  6.8679E+06  1.9381E-03  2.1679E-03  2.5509E-04  
         43   1        -1.7844E+08  2.4166E+08  1.3706E+08 -3.5848E-03  4.2170E-03  5.0906E-03  
         43   2        -2.2683E+08  1.7295E+08  1.6703E+08 -3.9817E-03  3.4429E-03  6.2040E-03  
         43   3         4.0398E+07  2.4730E+08  2.3985E+07 -4.8275E-04  3.3597E-03  8.9086E-04  
         43   4        -3.5160E+06  1.8850E+08  5.0926E+07 -8.5808E-04  2.7079E-03  1.8915E-03  
         44   1        -7.6978E+07  2.1878E+08  3.5094E+07 -2.0373E-03  3.4554E-03  1.3035E-03  
         44   2        -9.9359E+07  1.7960E+08  5.1143E+07 -2.1891E-03  2.9915E-03  1.8996E-03  
         44   3        -3.2477E+07  1.9475E+08 -1.6709E+07 -1.2986E-03  2.9214E-03 -6.2060E-04  
         44   4        -5.1911E+07  1.6149E+08 -2.6244E+06 -1.4337E-03  2.5295E-03 -9.7476E-05  
         45   1        -2.1571E+07  2.1596E+08 -5.4994E+07 -1.2337E-03  3.1775E-03 -2.0426E-03  
         45   2        -5.7700E+06  2.1586E+08 -5.9102E+07 -1.0075E-03  3.1084E-03 -2.1952E-03  
         45   3        -5.4006E+07  1.7975E+08 -9.0371E+07 -1.5419E-03  2.7993E-03 -3.3566E-03  
         45   4        -3.5207E+07  1.7995E+08 -9.4874E+07 -1.2742E-03  2.7216E-03 -3.5239E-03  
         46   1         8.2968E+06  1.4214E+08 -1.3040E+08 -4.9065E-04  1.9950E-03 -4.8434E-03  
         46   2         5.0050E+07  1.7054E+08 -1.4860E+08 -1.5889E-05  2.2218E-03 -5.5195E-03  
         46   3         3.5205E+06  2.7191E+08 -2.1462E+08 -1.1150E-03  3.8693E-03 -7.9716E-03  
         46   4         5.2423E+07  3.0336E+08 -2.3477E+08 -5.5122E-04  4.1090E-03 -8.7199E-03  
         47   1         2.8653E+07 -1.4997E+08 -6.6553E+07  1.0521E-03 -2.2653E-03 -2.4720E-03  
         47   2         1.4524E+08 -7.4567E+07 -1.1402E+08  2.3945E-03 -1.6877E-03 -4.2349E-03  
         47   3         1.0551E+08  4.2081E+08 -3.8043E+08 -2.9619E-04  5.5594E-03 -1.4130E-02  
         47   4         2.3617E+08  4.9473E+08 -4.2788E+08  1.2537E-03  6.0554E-03 -1.5893E-02  
         48   1         1.0695E+08 -3.7189E+08  2.1241E+08  3.1216E-03 -5.7710E-03  7.8894E-03  
         48   2         3.2105E+08 -2.9328E+08  1.7099E+08  5.8433E-03 -5.5657E-03  6.3509E-03  
         48   3         1.7007E+08  7.6295E+07 -5.4584E+08  2.1026E-03  3.6106E-04 -2.0274E-02  
         48   4         3.9364E+08  1.4763E+08 -5.7023E+08  4.9908E-03  4.2200E-04 -2.1180E-02  
         49   1        -1.8622E+07 -3.9079E+07  5.0264E+08 -9.8549E-05 -4.7847E-04  1.8670E-02  
         49   2        -8.5685E+07 -2.4954E+08  5.2525E+08 -1.5463E-04 -3.1976E-03  1.9509E-02  
         49   3         4.1831E+08  3.8808E+07 -2.4625E+08  5.8095E-03 -1.2384E-03 -9.1464E-03  
         49   4         3.4433E+08 -1.6351E+08 -2.0743E+08  5.6197E-03 -3.8116E-03 -7.7044E-03  
         50   1        -3.3083E+08  4.0015E+07  3.0788E+08 -4.8976E-03  1.9895E-03  1.1435E-02  
         50   2        -4.0272E+08 -8.7657E+07  3.5401E+08 -5.3775E-03  4.7371E-04  1.3149E-02  
         50   3         2.5823E+08  1.4345E+08 -2.1342E+07  3.0742E-03  9.4260E-04 -7.9271E-04  
         50   4         1.8435E+08  2.8627E+07  2.5220E+07  2.5108E-03 -3.8110E-04  9.3676E-04  
         51   1        -1.6381E+08  1.3424E+08  1.3637E+08 -2.9155E-03  2.6198E-03  5.0650E-03  
         51   2        -2.0503E+08  7.5903E+07  1.6187E+08 -3.2543E-03  1.9630E-03  6.0124E-03  
         51   3         3.8856E+07  1.5464E+08  3.1330E+07 -1.0764E-04  2.0426E-03  1.1637E-03  
         51   4         1.1892E+06  1.0436E+08  5.4405E+07 -4.3027E-04  1.4858E-03  2.0207E-03  
         52   1        -5.4634E+07  1.5578E+08  3.5612E+07 -1.4481E-03  2.4596E-03  1.3227E-03  
         52   2        -7.3689E+07  1.2456E+08  4.8769E+07 -1.5865E-03  2.0953E-03  1.8114E-03  
         52   3        -6.8339E+06  1.4684E+08 -8.5423E+06 -7.2696E-04  2.1271E-03 -3.1729E-04  
         52   4        -2.3485E+07  1.2021E+08  3.0377E+06 -8.5068E-04  1.8179E-03  1.1283E-04  
         53   1         3.9673E+06  1.7379E+08 -4.0583E+07 -6.8813E-04  2.4657E-03 -1.5074E-03  
         53   2         1.4571E+07  1.7270E+08 -4.3057E+07 -5.3199E-04  2.4047E-03 -1.5993E-03  
         53   3        -1.7151E+07  1.4258E+08 -6.6511E+07 -8.5608E-04  2.1104E-03 -2.4704E-03  
         53   4        -4.5701E+06  1.4158E+08 -6.9181E+07 -6.7207E-04  2.0422E-03 -2.5696E-03  
         54   1         7.9990E+07  1.4146E+08 -1.1770E+08  5.3645E-04  1.6781E-03 -4.3716E-03  
         54   2         1.1261E+08  1.6316E+08 -1.3175E+08  9.0941E-04  1.8482E-03 -4.8937E-03  
         54   3         8.4418E+07  2.4644E+08 -1.8951E+08  1.4980E-04  3.1588E-03 -7.0388E-03  
         54   4         1.2238E+08  2.7034E+08 -2.0494E+08  5.8972E-04  3.3375E-03 -7.6120E-03  
         55   1         2.1372E+08 -1.2264E+08 -7.4582E+07  3.5788E-03 -2.6679E-03 -2.7702E-03  
         55   2         3.2047E+08 -5.3285E+07 -1.1819E+08  4.8065E-03 -2.1346E-03 -4.3899E-03  
         55   3         3.1318E+08  4.3543E+08 -3.7959E+08  2.6079E-03  4.8782E-03 -1.4099E-02  
         55   4         4.3180E+08  5.0281E+08 -4.2285E+08  4.0137E-03  5.3324E-03 -1.5706E-02  
         56   1         4.4705E+08 -3.5320E+08  2.1304E+08  7.9002E-03 -6.9617E-03  7.9130E-03  
         56   2         6.5806E+08 -2.7614E+08  1.7265E+08  1.0584E-02 -6.7651E-03  6.4126E-03  
         56   3         5.2734E+08  9.9361E+07 -5.6814E+08  7.1076E-03 -8.4058E-04 -2.1102E-02  
         56   4         7.4685E+08  1.6928E+08 -5.9162E+08  9.9438E-03 -7.8248E-04 -2.1974E-02  
         57   1        -3.2683E+07 -3.7336E+08  5.2081E+08  1.1332E-03 -5.1937E-03  1.9344E-02  
         57   2        -9.8875E+07 -5.8152E+08  5.4263E+08  1.0797E-03 -7.8837E-03  2.0155E-02  
         57   3         4.0751E+08 -2.8007E+08 -2.5471E+08  7.0219E-03 -5.7475E-03 -9.4608E-03  
         57   4         3.3456E+08 -4.8085E+08 -2.1667E+08  6.8402E-03 -8.3031E-03 -8.0479E-03  
         58   1        -3.3877E+08 -1.5691E+08  2.9967E+08 -4.1672E-03 -7.8965E-04  1.1131E-02  
         58   2        -4.0471E+08 -2.7309E+08  3.4201E+08 -4.6112E-03 -2.1668E-03  1.2703E-02  
         58   3         2.4117E+08 -3.2090E+07 -1.9284E+07  3.5829E-03 -1.4920E-03 -7.1626E-04  
         58   4         1.7279E+08 -1.3744E+08  2.3723E+07  3.0575E-03 -2.7040E-03  8.8113E-04  
         59   1        -1.4212E+08  4.7213E+07  1.1662E+08 -2.2326E-03  1.2836E-03  4.3315E-03  
         59   2        -1.7599E+08  6.4209E+05  1.3736E+08 -2.5169E-03  7.6341E-04  5.1021E-03  
         59   3         4.1612E+07  7.8708E+07  2.6475E+07  2.5713E-04  9.4606E-04  9.8335E-04  
         59   4         1.0412E+07  3.8279E+07  4.5334E+07 -1.5306E-05  5.0221E-04  1.6838E-03  
         60   1        -3.4588E+07  1.0930E+08  2.8245E+07 -9.6256E-04  1.7097E-03  1.0491E-03  
         60   2        -4.8566E+07  8.8276E+07  3.7453E+07 -1.0721E-03  1.4692E-03  1.3911E-03  
         60   3         8.4974E+06  1.1090E+08 -3.2623E+06 -3.5388E-04  1.5478E-03 -1.2117E-04  
         60   4        -3.7979E+06  9.2863E+07  4.8608E+06 -4.5224E-04  1.3429E-03  1.8054E-04  
         61   1         1.7708E+07  1.4145E+08 -2.6901E+07 -3.5322E-04  1.9448E-03 -9.9919E-04  
         61   2         2.1345E+07  1.3817E+08 -2.6946E+07 -2.8723E-04  1.8824E-03 -1.0009E-03  
         61   3         4.7901E+06  1.1055E+08 -3.9078E+07 -4.0535E-04  1.5588E-03 -1.4515E-03  
         61   4         9.1432E+06  1.0699E+08 -3.9027E+07 -3.2792E-04  1.4893E-03 -1.4496E-03  
         62   1         1.3287E+08  1.3571E+08 -9.4260E+07  1.3166E-03  1.3692E-03 -3.5011E-03  
         62   2         1.5448E+08  1.5035E+08 -1.0366E+08  1.5625E-03  1.4858E-03 -3.8503E-03  
         62   3         1.4308E+08  2.1336E+08 -1.4501E+08  1.1296E-03  2.4348E-03 -5.3861E-03  
         62   4         1.6806E+08  2.2937E+08 -1.5528E+08  1.4178E-03  2.5564E-03 -5.7675E-03  
         63   1         3.8082E+08 -9.9579E+07 -6.1104E+07  5.8671E-03 -3.0546E-03 -2.2696E-03  
         63   2         4.7735E+08 -3.6264E+07 -1.0083E+08  6.9748E-03 -2.5639E-03 -3.7450E-03  
         63   3         4.9851E+08  4.4251E+08 -3.5238E+08  5.2251E-03  4.1851E-03 -1.3089E-02  
         63   4         6.0491E+08  5.0346E+08 -3.9155E+08  6.4838E-03  4.5999E-03 -1.4543E-02  
         64   1         7.8324E+08 -3.3363E+08  2.3135E+08  1.2619E-02 -8.1229E-03  8.5930E-03  
         64   2         9.9430E+08 -2.5718E+08  1.9161E+08  1.5307E-02 -7.9352E-03  7.1170E-03  
         64   3         8.7879E+08  1.2077E+08 -5.8424E+08  1.2037E-02 -2.0409E-03 -2.1701E-02  
         64   4         1.0977E+09  1.9030E+08 -6.0691E+08  1.4865E-02 -1.9857E-03 -2.2543E-02  
         65   1        -4.4571E+07 -7.0413E+08  5.3347E+08  2.3810E-03 -9.8680E-03  1.9814E-02  
         65   2        -1.1071E+08 -9.1277E+08  5.5455E+08  2.3302E-03 -1.2565E-02  2.0597E-02  
         65   3         3.9529E+08 -5.9713E+08 -2.7878E+08  8.2062E-03 -1.0225E-02 -1.0355E-02  
         65   4         3.2264E+08 -7.9893E+08 -2.4127E+08  8.0332E-03 -1.2796E-02 -8.9614E-03  
         66   1        -3.4076E+08 -3.3136E+08  2.6839E+08 -3.4479E-03 -3.2734E-03  9.9689E-03  
         66   2        -4.0057E+08 -4.3535E+08  3.0684E+08 -3.8567E-03 -4.5025E-03  1.1397E-02  
         66   3         2.2519E+08 -1.8981E+08 -3.4104E+07  4.0305E-03 -3.6767E-03 -1.2667E-03  
         66   4         1.6257E+08 -2.8487E+08  5.1408E+06  3.5433E-03 -4.7663E-03  1.9094E-04  
         67   1        -1.1670E+08 -1.5997E+07  8.1689E+07 -1.5986E-03  2.7160E-04  3.0342E-03  
         67   2        -1.4272E+08 -4.8966E+07  9.7190E+07 -1.8290E-03 -8.7860E-05  3.6099E-03  
         67   3         4.3498E+07  2.1560E+07  1.4719E+07  5.2901E-04  1.2158E-04  5.4671E-04  
         67   4         1.9280E+07 -7.3112E+06  2.8833E+07  3.0676E-04 -1.8707E-04  1.0710E-03  
         68   1        -1.9786E+07  8.1541E+07  1.6611E+07 -6.3211E-04  1.2497E-03  6.1696E-04  
         68   2        -2.7977E+07  7.0986E+07  2.1590E+07 -7.0390E-04  1.1340E-03  8.0190E-04  
         68   3         1.1643E+07  8.7466E+07  3.1867E+05 -2.0852E-04  1.1996E-03  1.1836E-05  
         68   4         4.3810E+06  7.8358E+07  4.7128E+06 -2.7323E-04  1.1006E-03  1.7505E-04  
         69   1         1.9944E+07  1.2136E+08 -1.5549E+07 -2.3519E-04  1.6482E-03 -5.7755E-04  
         69   2         1.6711E+07  1.1563E+08 -1.3118E+07 -2.5682E-04  1.5802E-03 -4.8723E-04  
         69   3         1.0517E+07  8.7383E+07 -1.2733E+07 -2.2426E-04  1.2033E-03 -4.7296E-04  
         69   4         6.8324E+06  8.0999E+07 -9.9261E+06 -2.4953E-04  1.1278E-03 -3.6868E-04  
         70   1         1.6426E+08  1.3017E+08 -6.6031E+07  1.7888E-03  1.1555E-03 -2.4526E-03  
         70   2         1.7263E+08  1.3719E+08 -7.0122E+07  1.8782E-03  1.2200E-03 -2.6045E-03  
         70   3         1.7515E+08  1.7661E+08 -8.5445E+07  1.7453E-03  1.7723E-03 -3.1737E-03  
         70   4         1.8471E+08  1.8415E+08 -8.9938E+07  1.8495E-03  1.8391E-03 -3.3406E-03  
         71   1         5.2837E+08 -7.7804E+07 -2.9443E+07  7.8816E-03 -3.3759E-03 -1.0936E-03  
         71   2         6.1338E+08 -2.1000E+07 -6.4927E+07  8.8526E-03 -2.9288E-03 -2.4116E-03  
         71   3         6.5913E+08  4.4193E+08 -2.9882E+08  7.5222E-03  3.4884E-03 -1.1099E-02  
         71   4         7.5205E+08  4.9607E+08 -3.3365E+08  8.6176E-03  3.8637E-03 -1.2393E-02  
         72   1         1.1198E+09 -3.1357E+08  2.6787E+08  1.7342E-02 -9.2789E-03  9.9493E-03  
         72   2         1.3338E+09 -2.3693E+08  2.2850E+08  2.0070E-02 -9.1011E-03  8.4872E-03  
         72   3         1.2289E+09  1.3834E+08 -5.9403E+08  1.6963E-02 -3.2906E-03 -2.2064E-02  
         72   4         1.4503E+09  2.0839E+08 -6.1594E+08  1.9825E-02 -3.2385E-03 -2.2878E-02  
         73   1        -5.2389E+07 -1.0350E+09  5.4036E+08  3.6875E-03 -1.4562E-02  2.0070E-02  
         73   2        -1.1923E+08 -1.2467E+09  5.6068E+08  3.6399E-03 -1.7299E-02  2.0825E-02  
         73   3         3.8172E+08 -9.1599E+08 -3.1926E+08  9.3787E-03 -1.4721E-02 -1.1858E-02  
         73   4         3.0875E+08 -1.1212E+09 -2.8208E+08  9.2159E-03 -1.7340E-02 -1.0477E-02  
         74   1        -3.3671E+08 -4.8068E+08  2.1367E+08 -2.7501E-03 -5.4238E-03  7.9363E-03  
         74   2        -3.8982E+08 -5.7082E+08  2.4787E+08 -3.1224E-03 -6.4840E-03  9.2065E-03  
         74   3         2.0780E+08 -3.2809E+08 -6.2774E+07  4.3747E-03 -5.5776E-03 -2.3316E-03  
         74   4         1.5160E+08 -4.1119E+08 -2.7767E+07  3.9279E-03 -6.5238E-03 -1.0313E-03  
         75   1        -9.0721E+07 -5.2765E+07  3.5590E+07 -1.0699E-03 -3.6498E-04  1.3219E-03  
         75   2        -1.0847E+08 -7.0405E+07  4.5406E+07 -1.2478E-03 -5.4093E-04  1.6865E-03  
         75   3         4.1371E+07 -1.5410E+07  5.5298E+05  6.5706E-04 -3.9745E-04  2.0539E-05  
         75   4         2.4587E+07 -3.1084E+07  9.4281E+06  4.8446E-04 -5.4943E-04  3.5019E-04  
         76   1        -1.1821E+07  7.0383E+07  4.6997E+06 -4.7052E-04  1.0561E-03  1.7456E-04  
         76   2        -1.4976E+07  6.8385E+07  6.1288E+06 -5.0703E-04  1.0411E-03  2.2764E-04  
         76   3         5.6577E+06  7.5426E+07  2.5387E+06 -2.4243E-04  1.0533E-03  9.4293E-05  
         76   4         2.8180E+06  7.3671E+07  3.7840E+06 -2.7547E-04  1.0404E-03  1.4055E-04  
         77   1         1.3140E+07  1.1138E+08 -7.2859E+06 -2.8963E-04  1.5348E-03 -2.7062E-04  
         77   2         5.2425E+06  1.0421E+08 -3.2334E+06 -3.7171E-04  1.4662E-03 -1.2010E-04  
         77   3         3.6130E+06  7.5363E+07  7.3223E+06 -2.7137E-04  1.0611E-03  2.7197E-04  
         77   4        -5.4845E+06  6.7327E+07  1.1910E+07 -3.6689E-04  9.8532E-04  4.4237E-04  
         78   1         1.7226E+08  1.2791E+08 -3.8286E+07  1.9127E-03  1.0890E-03 -1.4220E-03  
         78   2         1.6526E+08  1.2687E+08 -3.6475E+07  1.8171E-03  1.1041E-03 -1.3548E-03  
         78   3         1.7733E+08  1.4005E+08 -1.5448E+07  1.9331E-03  1.2407E-03 -5.7377E-04  
         78   4         1.6918E+08  1.3870E+08 -1.3640E+07  1.8224E-03  1.2563E-03 -5.0663E-04  
         79   1         6.5409E+08 -5.4248E+07  1.7089E+07  9.5767E-03 -3.5782E-03  6.3472E-04  
         79   2         7.2530E+08 -4.8730E+06 -1.3495E+07  1.0382E-02 -3.1780E-03 -5.0125E-04  
         79   3         7.9130E+08  4.3369E+08 -2.1817E+08  9.4457E-03  2.8043E-03 -8.1036E-03  
         79   4         8.6844E+08  4.8018E+08 -2.4816E+08  1.0348E-02  3.1378E-03 -9.2175E-03  
         80   1         1.4610E+09 -2.9283E+08  3.2362E+08  2.2126E-02 -1.0444E-02  1.2020E-02  
         80   2         1.6806E+09 -2.1531E+08  2.8443E+08  2.4931E-02 -1.0278E-02  1.0565E-02  
         80   3         1.5818E+09  1.4989E+08 -5.9715E+08  2.1955E-02 -4.6378E-03 -2.2180E-02  
         80   4         1.8085E+09  2.2130E+08 -6.1826E+08  2.4887E-02 -4.5893E-03 -2.2964E-02  

 MAXIMUM                1.8085E+09  2.3251E+09  5.6068E+08  2.4931E-02  3.3290E-02  2.0825E-02                                    
 ELEMENT                    80           1          73          80           1          73                                     

 MINIMUM               -1.9234E+09 -1.2467E+09 -6.1826E+08 -2.7621E-02 -1.7340E-02 -2.2964E-02                                    
 ELEMENT                     8          73          80           8          73          80                                     




                                       N O D E   O U T P U T




   THE FOLLOWING TABLE IS PRINTED FOR ALL NODES

       NODE FOOT-   U1          U2          RF1         RF2     
            NOTE

         1       -1.167       0.000       0.000     -9.6993E+08 
         2       -1.097      0.1126       0.000       0.000     
         3      -0.9336      0.2456       0.000       0.000     
         4      -0.7340      0.4086       0.000       0.000     
         5      -0.5354      0.6015       0.000       0.000     
         6      -0.3590      0.8168       0.000       0.000     
         7      -0.2118       1.034       0.000       0.000     
         8      -9.5088E-02   1.213       0.000       0.000     
         9        0.000       1.291      9.1720E+08   0.000     
        10       -1.172       0.000       0.000     -8.5488E+08 
        11       -1.093      9.5316E-02   0.000       0.000     
        12      -0.9103      0.2101       0.000       0.000     
        13      -0.6859      0.3528       0.000       0.000     
        14      -0.4614      0.5258       0.000       0.000     
        15      -0.3021      0.7656       0.000       0.000     
        16      -0.1741       1.008       0.000       0.000     
        17      -7.6156E-02   1.208       0.000       0.000     
        18        0.000       1.296      6.9509E+08   0.000     
        19       -1.176       0.000       0.000     -6.8205E+08 
        20       -1.089      7.8080E-02   0.000       0.000     
        21      -0.8859      0.1755       0.000       0.000     
        22      -0.6380      0.2996       0.000       0.000     
        23      -0.3902      0.4537       0.000       0.000     
        24      -0.2479      0.7152       0.000       0.000     
        25      -0.1375      0.9813       0.000       0.000     
        26      -5.7273E-02   1.203       0.000       0.000     
        27        0.000       1.299      5.1443E+08   0.000     
        28       -1.180       0.000       0.000     -5.2193E+08 
        29       -1.083      6.0553E-02   0.000       0.000     
        30      -0.8603      0.1412       0.000       0.000     
        31      -0.5900      0.2478       0.000       0.000     
        32      -0.3199      0.3828       0.000       0.000     
        33      -0.1950      0.6651       0.000       0.000     
        34      -0.1012      0.9534       0.000       0.000     
        35      -3.8095E-02   1.196       0.000       0.000     
        36        0.000       1.302      3.4688E+08   0.000     
        37       -1.182       0.000       0.000     -3.7107E+08 
        38       -1.076      4.2475E-02   0.000       0.000     
        39      -0.8338      0.1066       0.000       0.000     
        40      -0.5415      0.1964       0.000       0.000     
        41      -0.2493      0.3120       0.000       0.000     
        42      -0.1422      0.6148       0.000       0.000     
        43      -6.4509E-02  0.9248       0.000       0.000     
        44      -1.8314E-02   1.188       0.000       0.000     
        45        0.000       1.304      1.8865E+08   0.000     
        46       -1.184       0.000       0.000     -2.2651E+08 
        47       -1.069      2.3604E-02   0.000       0.000     
        48      -0.8062      7.1254E-02   0.000       0.000     
        49      -0.4923      0.1446       0.000       0.000     
        50      -0.1778      0.2407       0.000       0.000     
        51      -8.9020E-02  0.5642       0.000       0.000     
        52      -2.7064E-02  0.8953       0.000       0.000     
        53       2.3601E-03   1.179       0.000       0.000     
        54        0.000       1.306      3.6479E+07   0.000     
        55       -1.186       0.000       0.000     -8.5808E+07 
        56       -1.061      3.7010E-03   0.000       0.000     
        57      -0.7778      3.4897E-02   0.000       0.000     
        58      -0.4425      9.1926E-02   0.000       0.000     
        59      -0.1053      0.1687       0.000       0.000     
        60      -3.4850E-02  0.5132       0.000       0.000     
        61       1.1576E-02  0.8650       0.000       0.000     
        62       2.4216E-02   1.170       0.000       0.000     
        63        0.000       1.307     -1.1238E+08   0.000     
        64       -1.187       0.000       0.000      5.3189E+07 
        65       -1.052     -1.7479E-02   0.000       0.000     
        66      -0.7485     -2.8040E-03   0.000       0.000     
        67      -0.3919      3.8226E-02   0.000       0.000     
        68      -3.2018E-02  9.6026E-02   0.000       0.000     
        69       2.0454E-02  0.4617       0.000       0.000     
        70       5.1725E-02  0.8339       0.000       0.000     
        71       4.7550E-02   1.160       0.000       0.000     
        72        0.000       1.308     -2.6037E+08   0.000     
        73       -1.187       0.000       0.000      1.9245E+08 
        74       -1.042     -4.0193E-02   0.000       0.000     
        75      -0.7184     -4.2061E-02   0.000       0.000     
        76      -0.3408     -1.6557E-02   0.000       0.000     
        77       4.1802E-02  2.2951E-02   0.000       0.000     
        78       7.6855E-02  0.4099       0.000       0.000     
        79       9.3609E-02  0.8022       0.000       0.000     
        80       7.2671E-02   1.149       0.000       0.000     
        81        0.000       1.308     -4.0973E+08   0.000     
        82       -1.187       0.000       0.000      3.3387E+08 
        83       -1.032     -6.4720E-02   0.000       0.000     
        84      -0.6876     -8.3004E-02   0.000       0.000     
        85      -0.2893     -7.2285E-02   0.000       0.000     
        86       0.1159     -5.0287E-02   0.000       0.000     
        87       0.1341      0.3579       0.000       0.000     
        88       0.1374      0.7699       0.000       0.000     
        89       9.9916E-02   1.138       0.000       0.000     
        90        0.000       1.307     -5.6266E+08   0.000     
        91       -1.186       0.000       0.000      1.1327E+09 
        92       -1.021     -9.1361E-02   0.000       0.000     
        93      -0.6562     -0.1257       0.000       0.000     
        94      -0.2375     -0.1287       0.000       0.000     
        95       0.1899     -0.1235       0.000       0.000     
        96       0.1919      0.3059       0.000       0.000     
        97       0.1830      0.7372       0.000       0.000     
        98       0.1296       1.126       0.000       0.000     
        99        0.000       1.306     -1.3536E+09   0.000     

 MAXIMUM         0.1919       1.308      9.1720E+08  1.1327E+09
 AT NODE                96          81           9          91

 MINIMUM         -1.187     -0.1287     -1.3536E+09 -9.6993E+08
 AT NODE                73          94          99           1


          THE ANALYSIS HAS BEEN COMPLETED



                              ANALYSIS COMPLETE



     JOB TIME SUMMARY
       USER TIME (SEC)      =  0.10000    
       SYSTEM TIME (SEC)    =  0.10000    
       TOTAL CPU TIME (SEC) =  0.20000    
       WALLCLOCK TIME (SEC) =          1
