1

  ABAQUS VERSION 6.4-1                                     DATE 07-Apr-2008   TIME 17:24:36        PAGE     1
 





    AAAAAA     BBBBBBBBB      AAAAAA      QQQQQQQQ    U        U    SSSSSSSS
   A      A    B        B    A      A    Q        Q   U        U   S
  A        A   B        B   A        A   Q        Q   U        U   S
  A        A   B        B   A        A   Q        Q   U        U   S
  AAAAAAAAAA   BBBBBBBBB    AAAAAAAAAA   Q        Q   U        U    SSSSSSSS
  A        A   B        B   A        A   Q    Q   Q   U        U            S
  A        A   B        B   A        A   Q     Q  Q   U        U            S
  A        A   B        B   A        A   Q      Q Q   U        U            S
  A        A   BBBBBBBBB    A        A    QQQQQQQQ     UUUUUUUU     SSSSSSSS
 



                      This program has been developed by
 
                                  ABAQUS, Inc.
                                1080 Main Street
                             Pawtucket, R.I. 02860
 


                   Available for internal use at University of Virginia. 
                   Support of your usage is not included in the license
                   price.  To purchase support, or send information to ABAQUS, Inc.
                   about a suspected error, please follow the procedures
                   described in the ABAQUS academic support instructions
                   document. A copy of this document has been sent to the
                   designated user at your site. Additional copies can be
                   obtained by contacting ABAQUS, Inc. or your local ABAQUS
                   representative.

                   Should you have any questions concerning the terms of
                   this academic license, please contact the designated
                   user at your university, Brad Sayler
 
                        On machine d107-14 
                        you are authorized to run
                        ABAQUS/Standard until 31-Dec-2008

                        Your site id is: 08UVA_X 


 
                    For assistance or any other information contact

                           ABAQUS, INC.
                           1080 Main Street
                           Pawtucket, RI 02860-4847
                           U.S.A.
                           Tel: (1) 401 727 4200
                           Fax: (1) 401 727 4208
                           E-mail: info@abaqus.com
                           Web: http://www.abaqus.com
                           Technical support: support@abaqus.com 


                * * * * * * * * * * * * * * * * * * * * * * * * * * * * * * 
                *                                                         * 
                *                   *****************                     * 
                *                   *  N O T I C E  *                     * 
                *                   *****************                     * 
                *                                                         * 
                *                                                         * 
                *                 ABAQUS VERSION 6.4-1                    * 
                *                                                         * 
                *          BUILD ID: 2003_09_29-11.18.28 46457            * 
                *                                                         * 
                *                                                         * 
                *  Please make sure you are using version 6.4 manuals     * 
                *  plus the notes accompanying this release.              * 
                *                                                         * 
                *                                                         * 
                *   This program may not be used for commercial purposes  * 
                *           without payment of a monthly charge.          * 
                *                                                         * 
                * * * * * * * * * * * * * * * * * * * * * * * * * * * * * * 


 



     PROCESSING PART, INSTANCE, AND ASSEMBLY INFORMATION
   *******************************************************


     END PROCESSING PART, INSTANCE, AND ASSEMBLY INFORMATION
   ***********************************************************




     OPTIONS BEING PROCESSED
   ***************************


  *Heading
          2-D plate with hole: 4-noded elements                                                                                                                                                                                                                           
  *NODE
  *NODE,NSET=N1
  *NODE,NSET=N2
  *NODE,NSET=N3
  *NODE,NSET=N4
  *NODE,NSET=N5
  *NGEN,NSET=ARC1,LINE=C
  *NGEN,NSET=ROW1
  *NGEN,NSET=ROW1
  *NFILL,NSET=ALL, BIAS= 1.000
  *ELEMENT, ELSET=ALL, TYPE=CPS4
  *ELGEN, ELSET=ALL
  *ELSET,ELSET=TOP,GENERATE
  *NSET, NSET=YAXIS,GENERATE
  *NSET, NSET=XAXIS,GENERATE
  *MATERIAL,NAME=ALUM
  *ELASTIC
  *SOLID SECTION, ELSET=ALL, MAT=ALUM
  *BOUNDARY
  *SOLID SECTION, ELSET=ALL, MAT=ALUM
  *STEP
  *STEP
  *STEP
  *STATIC
  *BOUNDARY
  *DLOAD
  *EL PRINT
  *END STEP
  *STEP
  *STATIC
  *BOUNDARY
  *NODE PRINT
  *END STEP
1

   ABAQUS VERSION 6.4-1                                 DATE 07-Apr-2008       TIME 17:24:37        PAGE    2
   For use at None under academic license from ABAQUS, Inc.                                                                        

     2-D plate with hole: 4-noded elements                                           



                            P R O B L E M   S I Z E


          NUMBER OF ELEMENTS IS                                   320
          NUMBER OF NODES IS                                      369
          NUMBER OF NODES DEFINED BY THE USER                     369
          TOTAL NUMBER OF VARIABLES IN THE MODEL                  738
          (DEGREES OF FREEDOM PLUS ANY LAGRANGE MULTIPLIER VARIABLES)



                              END OF USER INPUT PROCESSING



     JOB TIME SUMMARY
       USER TIME (SEC)      =  0.50000    
       SYSTEM TIME (SEC)    =  0.10000    
       TOTAL CPU TIME (SEC) =  0.60000    
       WALLCLOCK TIME (SEC) =          1
1

   ABAQUS VERSION 6.4-1                                     DATE 07-Apr-2008   TIME 17:24:38        PAGE    1
   For use at None under academic license from ABAQUS, Inc.                                                                        

     2-D plate with hole: 4-noded elements                                                     STEP    1  INCREMENT    1
                                                                                          TIME COMPLETED IN THIS STEP   0.00    


                        S T E P       1     S T A T I C   A N A L Y S I S


                                                                                          

     AUTOMATIC TIME CONTROL WITH -
          A SUGGESTED INITIAL TIME INCREMENT OF                 1.00    
          AND A TOTAL TIME PERIOD OF                            1.00    
          THE MINIMUM TIME INCREMENT ALLOWED IS                1.000E-06
          THE MAXIMUM TIME INCREMENT ALLOWED IS                 1.00    

     LINEAR EQUATION SOLVER TYPE         DIRECT SPARSE
  
  
  
                   M E M O R Y   A N D   D I S K   E S T I M A T E
  
  
           SUMMARY FOR CURRENT NODE ORDERING
          (NOTE THAT IF NODE ORDERING CHANGES THE SIZE ESTIMATES FOR THE STEPS WILL CHANGE)
  
  
           STEP   MAXIMUM DOF     FLOATING PT    MINIMUM MEMORY      MEMORY TO      REQUIRED DISKSPACE
                  WAVEFRONT       OPERATIONS       REQUIRED        MINIMIZE I/O
                                PER ITERATION     (MBYTES)           (MBYTES)          (KBYTES)
  
             1          62        5.42E+005         14.70              14.70            271.24
          ----    ---------      ------------    -------------     -------------      -------------
           MAX          62        5.42E+005         14.70              14.70            271.24
  
  
          THE TABLE ABOVE PROVIDES A STEP BY STEP SUMMARY OF SOME BASIC SIZING INFORMATION
          FOR THE PROBLEM. SOME FURTHER DESCRIPTION OF THE PARAMETERS GIVEN FOLLOWS:
  
          (1) MAXIMUM DOF WAVEFRONT - SIZE OF THE BIGGEST FRONT IN THE EQUATION SOLVER.
              PROVIDES A BASIC SIZING OF THE MOST MEMORY INTENSIVE SEGMENT OF SOLVER.
          (2) FLOATING POINT OPERATIONS PER ITERATION - MEASURE OF THE NUMBER OF FLOATING
              POINT OPERATIONS REQUIRED FOR A SINGLE SOLVER PASS. ON A GIVEN PLATFORM
              THE TIME REQUIRED FOR A SOLVER PASS WILL BE ROUGHLY A LINEAR FUNCTION
              OF THIS VALUE.
              NOTE - EXCEPT FOR THE FIRST STEP, THE VALUE IN THIS TABLE DOES NOT INCLUDE
                     ADDITIONAL FLOATING POINT OPERATIONS THAT ARE REQUIRED IN MULTIPLE LOAD
                     CASE STEPS WHEN CONSTRAINTS CHANGE FROM LOAD CASE TO LOAD CASE.  THIS
                     SITUATION CAUSES A REORDERING TO BE PERFORMED, AT WHICH TIME AN UPPER
                     BOUND ON THE NUMBER OF ADDITIONAL FLOATING POINT OPERATIONS WILL BE
                     CALCULATED AND INCLUDED UNDER THE ESTIMATE SUMMARIES FOR THE RELEVANT
                     STEPS (SEE NOTE BELOW ON REORDERING).
          (3) MINIMUM MEMORY REQUIRED - MINIMUM POSSIBLE MEMORY VALUE FOR standard_memory
              THAT ENABLES ABAQUS TO SOLVE THE PROBLEM. USE OF MEMORY WILL BE MINIMIZED BY
              WRITING AS MUCH INFORMATION AS POSSIBLE TO DISK WHICH WILL INCREASE I/O TIME.
          (4) MEMORY TO MINIMIZE I/O - VALUE OF standard_memory THAT ALLOWS ABAQUS TO KEEP
              ALL SIGNIFICANT SCRATCH FILES IN MEMORY. THIS WILL MINIMIZE I/O TIME FOR THE USER
              WITH ACCESS TO A LARGE AMOUNT OF MEMORY.
          (5) REQUIRED DISKSPACE - AMOUNT OF DISK REQUIRED FOR SCRATCH FILES. THESE WILL BE
              DELETED AT THE END OF THE ANALYSIS.
  
  
           NOTE - WHENEVER POSSIBLE THE USER SHOULD SET standard_memory TO BE LESS THAN THE
          PHYSICAL MEMORY ON THE MACHINE. UNLESS NECESSARY USERS SHOULD NOT MAKE USE
          OF VIRTUAL MEMORY EVEN IN AN ATTEMPT TO KEEP SCRATCH FILES IN MEMORY.
  
           NOTE - IF A REORDERING IS PERFORMED (THIS WILL GENERALLY BE DONE ONLY FOR 3D-3D
          LARGE SLIDING PROBLEMS), THE SIZE ESTIMATES DONE AT THIS TIME WILL NO LONGER BE VALID.
          THE ESTIMATES WILL BE REDONE IN THE EVENT OF A REORDERING AND A NEW SUMMARY WILL BE
          BE PRINTED FOR THE REMAINING STEPS.
  
  
  
           S I Z E   E S T I M A T E S   F O R   C U R R E N T   S T E P
  
          NUMBER OF EQUATIONS                        738
          MAX DOF WAVEFRONT                          62
          FLOATING POINT OPS PER SOLVER ITERATION   5.42E+005
          MEMORY USED FOR STEP                      14.79 MBYTES
  
  
           ESTIMATED FILE SIZES
  
           FILE           KWORDS           KBYTES
  
          .fct            18.079          141.242
          .nck             2.560           20.000
          .opr            14.080          110.000
          -------        -------          -------
           TOTAL          34.719          271.242
  


                                INCREMENT     1 SUMMARY


 TIME INCREMENT COMPLETED   1.00    ,  FRACTION OF STEP COMPLETED   1.00    
 STEP TIME COMPLETED        1.00    ,  TOTAL TIME COMPLETED         1.00    



                                                  E L E M E N T   O U T P U T





   THE FOLLOWING TABLE IS PRINTED FOR ALL ELEMENTS WITH TYPE CPS4 AT THE INTEGRATION POINTS

    ELEMENT  PT FOOT-       S11         S22         S12         E11         E22         E12     
                NOTE 

          1   1        -7.0467E+07  2.2427E+09  2.4688E+08 -1.0618E-02  3.2340E-02  9.1699E-03  
          1   2        -9.5712E+07  2.1631E+09  2.5506E+08 -1.0638E-02  3.1312E-02  9.4737E-03  
          1   3         3.1702E+08  2.1547E+09 -5.4182E+08 -4.7055E-03  2.9423E-02 -2.0125E-02  
          1   4         2.9036E+08  2.0810E+09 -5.2798E+08 -4.7704E-03  2.8484E-02 -1.9611E-02  
          2   1        -2.1246E+08  1.6457E+09 -2.2472E+08 -1.0088E-02  2.4420E-02 -8.3466E-03  
          2   2        -2.4661E+08  1.5834E+09 -2.0285E+08 -1.0309E-02  2.3677E-02 -7.5344E-03  
          2   3         4.3544E+08  1.4791E+09 -6.0565E+08 -1.1848E-04  1.9264E-02 -2.2496E-02  
          2   4         4.0267E+08  1.4267E+09 -5.8485E+08 -3.6188E-04  1.8655E-02 -2.1723E-02  
          3   1        -4.4896E+06  9.4232E+08 -3.5993E+08 -4.1027E-03  1.3481E-02 -1.3369E-02  
          3   2        -3.7742E+07  9.0158E+08 -3.4034E+08 -4.4031E-03  1.3041E-02 -1.2641E-02  
          3   3         4.0047E+08  7.8908E+08 -4.6769E+08  2.3392E-03  9.5563E-03 -1.7371E-02  
          3   4         3.7132E+08  7.5550E+08 -4.5095E+08  2.0668E-03  9.2014E-03 -1.6750E-02  
          4   1         7.7970E+07  3.7347E+08 -2.4771E+08 -4.8673E-04  5.0011E-03 -9.2006E-03  
          4   2         5.7856E+07  3.5746E+08 -2.3782E+08 -7.0543E-04  4.8586E-03 -8.8334E-03  
          4   3         2.5508E+08  3.3293E+08 -2.3299E+08  2.2172E-03  3.6630E-03 -8.6540E-03  
          4   4         2.3779E+08  3.1953E+08 -2.2470E+08  2.0276E-03  3.5457E-03 -8.3459E-03  
          5   1        -5.3070E+07 -7.3918E+06 -2.4367E+07 -7.2646E-04  1.2184E-04 -9.0505E-04  
          5   2        -4.9638E+07  1.0924E+06 -2.7614E+07 -7.1379E-04  2.2834E-04 -1.0256E-03  
          5   3        -2.9135E+07  1.0610E+08  4.0348E+06 -8.7092E-04  1.6406E-03  1.4986E-04  
          5   4        -2.5116E+07  1.1590E+08  1.1051E+05 -8.5553E-04  1.7634E-03  4.1047E-06  
          6   1        -4.4263E+08 -2.6588E+08  2.5201E+08 -5.1838E-03 -1.9013E-03  9.3603E-03  
          6   2        -4.1509E+08 -2.4041E+08  2.3776E+08 -4.8995E-03 -1.6555E-03  8.8309E-03  
          6   3        -5.5030E+08  1.0871E+08  1.7500E+08 -8.3273E-03  3.9114E-03  6.5001E-03  
          6   4        -5.1696E+08  1.3768E+08  1.5827E+08 -7.9752E-03  4.1825E-03  5.8785E-03  
          7   1        -1.1177E+09 -4.0490E+08  4.7755E+08 -1.4232E-02 -9.9410E-04  1.7737E-02  
          7   2        -1.0664E+09 -3.7182E+08  4.5671E+08 -1.3641E-02 -7.4141E-04  1.6963E-02  
          7   3        -1.2640E+09  2.7569E+08  1.1304E+08 -1.9239E-02  9.3556E-03  4.1988E-03  
          7   4        -1.2032E+09  3.1000E+08  9.1028E+07 -1.8517E-02  9.5850E-03  3.3810E-03  
          8   1        -1.8161E+09 -3.3894E+08  5.1429E+08 -2.4491E-02  2.9412E-03  1.9102E-02  
          8   2        -1.7391E+09 -3.1092E+08  4.9965E+08 -2.3512E-02  3.0116E-03  1.8558E-02  
          8   3        -1.9023E+09  8.3948E+07 -3.0811E+08 -2.7536E-02  9.3521E-03 -1.1444E-02  
          8   4        -1.8193E+09  1.1035E+08 -3.1686E+08 -2.6463E-02  9.3736E-03 -1.1769E-02  
          9   1        -6.0079E+07  2.1221E+09  2.6331E+08 -9.9530E-03  3.0573E-02  9.7802E-03  
          9   2        -8.4575E+07  2.0450E+09  2.7129E+08 -9.9724E-03  2.9577E-02  1.0076E-02  
          9   3         3.2809E+08  2.0453E+09 -5.1416E+08 -4.0787E-03  2.7813E-02 -1.9097E-02  
          9   4         3.0214E+08  1.9737E+09 -5.0068E+08 -4.1423E-03  2.6901E-02 -1.8597E-02  
         10   1        -2.2030E+08  1.5576E+09 -1.7703E+08 -9.8227E-03  2.3196E-02 -6.5755E-03  
         10   2        -2.5330E+08  1.4975E+09 -1.5589E+08 -1.0037E-02  2.2479E-02 -5.7904E-03  
         10   3         4.2308E+08  1.4105E+09 -5.5447E+08 -1.0642E-06  1.8337E-02 -2.0595E-02  
         10   4         3.9130E+08  1.3597E+09 -5.3430E+08 -2.3733E-04  1.7748E-02 -1.9846E-02  
         11   1        -3.1072E+07  9.0117E+08 -3.0736E+08 -4.3060E-03  1.3007E-02 -1.1416E-02  
         11   2        -6.2534E+07  8.6242E+08 -2.8879E+08 -4.5894E-03  1.2588E-02 -1.0727E-02  
         11   3         3.6213E+08  7.6375E+08 -4.1696E+08  1.9001E-03  9.3588E-03 -1.5487E-02  
         11   4         3.3450E+08  7.3175E+08 -4.0105E+08  1.6425E-03  9.0200E-03 -1.4896E-02  
         12   1         3.9535E+07  3.8860E+08 -2.1470E+08 -1.1006E-03  5.3820E-03 -7.9747E-03  
         12   2         2.2411E+07  3.7416E+08 -2.0610E+08 -1.2834E-03  5.2492E-03 -7.6551E-03  
         12   3         1.9000E+08  3.4862E+08 -2.0899E+08  1.2201E-03  4.1661E-03 -7.7623E-03  
         12   4         1.7527E+08  3.3654E+08 -2.0175E+08  1.0615E-03  4.0566E-03 -7.4935E-03  
         13   1        -7.6773E+07  5.4799E+07 -3.4237E+07 -1.3316E-03  1.1119E-03 -1.2717E-03  
         13   2        -7.4023E+07  6.1112E+07 -3.6704E+07 -1.3194E-03  1.1903E-03 -1.3633E-03  
         13   3        -6.0768E+07  1.3987E+08 -1.5180E+07 -1.4676E-03  2.2586E-03 -5.6382E-04  
         13   4        -5.7541E+07  1.4716E+08 -1.8154E+07 -1.4527E-03  2.3489E-03 -6.7428E-04  
         14   1        -4.2551E+08 -2.1943E+08  2.0670E+08 -5.1383E-03 -1.3111E-03  7.6775E-03  
         14   2        -3.9943E+08 -1.9559E+08  1.9330E+08 -4.8679E-03 -1.0823E-03  7.1797E-03  
         14   3        -5.2225E+08  1.3744E+08  1.2687E+08 -8.0497E-03  4.2016E-03  4.7123E-03  
         14   4        -4.9074E+08  1.6451E+08  1.1118E+08 -7.7156E-03  4.4533E-03  4.1294E-03  
         15   1        -1.0511E+09 -3.8452E+08  4.2428E+08 -1.3367E-02 -9.8851E-04  1.5759E-02  
         15   2        -1.0015E+09 -3.5257E+08  4.0416E+08 -1.2796E-02 -7.4457E-04  1.5012E-02  
         15   3        -1.1791E+09  2.8693E+08  6.3597E+07 -1.8073E-02  9.1522E-03  2.3622E-03  
         15   4        -1.1205E+09  3.1995E+08  4.2405E+07 -1.7378E-02  9.3729E-03  1.5750E-03  
         16   1        -1.7010E+09 -3.4637E+08  4.8402E+08 -2.2816E-02  2.3420E-03  1.7978E-02  
         16   2        -1.6263E+09 -3.1913E+08  4.6977E+08 -2.1865E-02  2.4108E-03  1.7449E-02  
         16   3        -1.7758E+09  7.6042E+07 -3.2588E+08 -2.5694E-02  8.6967E-03 -1.2104E-02  
         16   4        -1.6953E+09  1.0164E+08 -3.3440E+08 -2.4655E-02  8.7177E-03 -1.2421E-02  
         17   1        -5.1043E+07  2.0048E+09  2.7896E+08 -9.3211E-03  2.8858E-02  1.0361E-02  
         17   2        -7.4841E+07  1.9299E+09  2.8675E+08 -9.3401E-03  2.7891E-02  1.0651E-02  
         17   3         3.3790E+08  1.9385E+09 -4.8826E+08 -3.4809E-03  2.6245E-02 -1.8135E-02  
         17   4         3.1262E+08  1.8688E+09 -4.7510E+08 -3.5432E-03  2.5357E-02 -1.7647E-02  
         18   1        -2.2802E+08  1.4716E+09 -1.3231E+08 -9.5643E-03  2.2000E-02 -4.9143E-03  
         18   2        -2.5996E+08  1.4135E+09 -1.1185E+08 -9.7716E-03  2.1307E-02 -4.1545E-03  
         18   3         4.1157E+08  1.3428E+09 -5.0643E+08  1.2467E-04  1.7419E-02 -1.8810E-02  
         18   4         3.8071E+08  1.2935E+09 -4.8686E+08 -1.0503E-04  1.6848E-02 -1.8083E-02  
         19   1        -5.5353E+07  8.6000E+08 -2.5853E+08 -4.4765E-03  1.2523E-02 -9.6025E-03  
         19   2        -8.5098E+07  8.2315E+08 -2.4094E+08 -4.7435E-03  1.2124E-02 -8.9492E-03  
         19   3         3.2550E+08  7.3692E+08 -3.6970E+08  1.4918E-03  9.1324E-03 -1.3732E-02  
         19   4         2.9933E+08  7.0642E+08 -3.5460E+08  1.2486E-03  8.8088E-03 -1.3171E-02  
         20   1         6.8061E+06  3.9998E+08 -1.8506E+08 -1.6170E-03  5.6848E-03 -6.8737E-03  
         20   2        -7.9260E+06  3.8669E+08 -1.7745E+08 -1.7705E-03  5.5581E-03 -6.5910E-03  
         20   3         1.3457E+08  3.5910E+08 -1.8722E+08  3.8337E-04  4.5533E-03 -6.9539E-03  
         20   4         1.2189E+08  3.4798E+08 -1.8080E+08  2.4997E-04  4.4487E-03 -6.7155E-03  
         21   1        -9.5009E+07  1.0710E+08 -4.2809E+07 -1.8163E-03  1.9372E-03 -1.5901E-03  
         21   2        -9.2650E+07  1.1171E+08 -4.4703E+07 -1.8023E-03  1.9930E-03 -1.6604E-03  
         21   3        -8.7334E+07  1.6790E+08 -3.1882E+07 -1.9672E-03  2.7729E-03 -1.1842E-03  
         21   4        -8.4554E+07  1.7322E+08 -3.4154E+07 -1.9503E-03  2.8370E-03 -1.2686E-03  
         22   1        -4.0647E+08 -1.7583E+08  1.6490E+08 -5.0532E-03 -7.6985E-04  6.1247E-03  
         22   2        -3.8178E+08 -1.5354E+08  1.5230E+08 -4.7959E-03 -5.5725E-04  5.6567E-03  
         22   3        -4.9346E+08  1.6336E+08  8.2631E+07 -7.7495E-03  4.4485E-03  3.0692E-03  
         22   4        -4.6366E+08  1.8864E+08  6.7921E+07 -7.4322E-03  4.6819E-03  2.5228E-03  
         23   1        -9.8518E+08 -3.6534E+08  3.7457E+08 -1.2508E-02 -9.9693E-04  1.3913E-02  
         23   2        -9.3725E+08 -3.3445E+08  3.5511E+08 -1.1956E-02 -7.6105E-04  1.3190E-02  
         23   3        -1.0960E+09  2.9788E+08  1.7503E+07 -1.6934E-02  8.9527E-03  6.5012E-04  
         23   4        -1.0396E+09  3.2971E+08 -2.9248E+06 -1.6264E-02  9.1655E-03 -1.0863E-04  
         24   1        -1.5888E+09 -3.5253E+08  4.5575E+08 -2.1186E-02  1.7728E-03  1.6928E-02  
         24   2        -1.5161E+09 -3.2602E+08  4.4187E+08 -2.0261E-02  1.8401E-03  1.6412E-02  
         24   3        -1.6527E+09  6.9570E+07 -3.4275E+08 -2.3908E-02  8.0767E-03 -1.2731E-02  
         24   4        -1.5746E+09  9.4411E+07 -3.5106E+08 -2.2900E-02  8.0972E-03 -1.3040E-02  
         25   1        -4.3267E+07  1.8905E+09  2.9387E+08 -8.7201E-03  2.7192E-02  1.0915E-02  
         25   2        -6.6418E+07  1.8176E+09  3.0148E+08 -8.7387E-03  2.6251E-02  1.1198E-02  
         25   3         3.4661E+08  1.8341E+09 -4.6401E+08 -2.9090E-03  2.4716E-02 -1.7235E-02  
         25   4         3.2195E+08  1.7662E+09 -4.5116E+08 -2.9702E-03  2.3852E-02 -1.6757E-02  
         26   1        -2.3563E+08  1.3875E+09 -9.0374E+07 -9.3125E-03  2.0831E-02 -3.3567E-03  
         26   2        -2.6658E+08  1.3313E+09 -7.0551E+07 -9.5136E-03  2.0160E-02 -2.6205E-03  
         26   3         4.0064E+08  1.2760E+09 -4.6134E+08  2.5503E-04  1.6511E-02 -1.7136E-02  
         26   4         3.7064E+08  1.2281E+09 -4.4232E+08  3.1443E-05  1.5956E-02 -1.6429E-02  
         27   1        -7.7414E+07  8.1897E+08 -2.1329E+08 -4.6158E-03  1.2031E-02 -7.9223E-03  
         27   2        -1.0554E+08  7.8389E+08 -1.9663E+08 -4.8672E-03  1.1651E-02 -7.3032E-03  
         27   3         2.9096E+08  7.0883E+08 -3.2584E+08  1.1188E-03  8.8791E-03 -1.2103E-02  
         27   4         2.6617E+08  6.7974E+08 -3.1149E+08  8.8930E-04  8.5698E-03 -1.1570E-02  
         28   1        -2.0918E+07  4.0759E+08 -1.5833E+08 -2.0456E-03  5.9124E-03 -5.8810E-03  
         28   2        -3.3743E+07  3.9510E+08 -1.5149E+08 -2.1753E-03  5.7888E-03 -5.6268E-03  
         28   3         8.7641E+07  3.6498E+08 -1.6745E+08 -3.1221E-04  4.8385E-03 -6.2195E-03  
         28   4         7.6605E+07  3.5453E+08 -1.6166E+08 -4.2506E-04  4.7364E-03 -6.0044E-03  
         29   1        -1.0842E+08  1.5070E+08 -5.0220E+07 -2.1947E-03  2.6175E-03 -1.8653E-03  
         29   2        -1.0623E+08  1.5398E+08 -5.1701E+07 -2.1775E-03  2.6550E-03 -1.9203E-03  
         29   3        -1.0899E+08  1.9088E+08 -4.6406E+07 -2.3750E-03  3.1940E-03 -1.7237E-03  
         29   4        -1.0640E+08  1.9468E+08 -4.8170E+07 -2.3543E-03  3.2371E-03 -1.7892E-03  
         30   1        -3.8582E+08 -1.3534E+08  1.2649E+08 -4.9316E-03 -2.7994E-04  4.6981E-03  
         30   2        -3.6240E+08 -1.1450E+08  1.1464E+08 -4.6865E-03 -8.2492E-05  4.2580E-03  
         30   3        -4.6412E+08  1.8659E+08  4.2127E+07 -7.4300E-03  4.6547E-03  1.5647E-03  
         30   4        -4.3592E+08  2.1019E+08  2.8333E+07 -7.1283E-03  4.8710E-03  1.0524E-03  
         31   1        -9.2005E+08 -3.4713E+08  3.2820E+08 -1.1656E-02 -1.0159E-03  1.2190E-02  
         31   2        -8.7367E+08 -3.1722E+08  3.0937E+08 -1.1121E-02 -7.8750E-04  1.1491E-02  
         31   3        -1.0148E+09  3.0855E+08 -2.5433E+07 -1.5820E-02  8.7572E-03 -9.4467E-04  
         31   4        -9.6037E+08  3.3927E+08 -4.5150E+07 -1.5174E-02  8.9626E-03 -1.6770E-03  
         32   1        -1.4790E+09 -3.5758E+08  4.2939E+08 -1.9597E-02  1.2304E-03  1.5949E-02  
         32   2        -1.4083E+09 -3.3175E+08  4.1585E+08 -1.8697E-02  1.2964E-03  1.5446E-02  
         32   3        -1.5328E+09  6.4426E+07 -3.5879E+08 -2.2173E-02  7.4895E-03 -1.3327E-02  
         32   4        -1.4570E+09  8.8570E+07 -3.6690E+08 -2.1194E-02  7.5095E-03 -1.3628E-02  
         33   1        -3.6659E+07  1.7789E+09  3.0808E+08 -8.1477E-03  2.5570E-02  1.1443E-02  
         33   2        -5.9208E+07  1.7080E+09  3.1553E+08 -8.1660E-03  2.4654E-02  1.1720E-02  
         33   3         3.5434E+08  1.7320E+09 -4.4133E+08 -2.3608E-03  2.3224E-02 -1.6392E-02  
         33   4         3.3025E+08  1.6657E+09 -4.2876E+08 -2.4210E-03  2.2381E-02 -1.5925E-02  
         34   1        -2.4313E+08  1.3052E+09 -5.1073E+07 -9.0670E-03  1.9688E-02 -1.8970E-03  
         34   2        -2.7314E+08  1.2508E+09 -3.1846E+07 -9.2624E-03  1.9039E-02 -1.1828E-03  
         34   3         3.9013E+08  1.2100E+09 -4.1905E+08  3.8772E-04  1.5613E-02 -1.5565E-02  
         34   4         3.6095E+08  1.1635E+09 -4.0055E+08  1.6988E-04  1.5075E-02 -1.4878E-02  
         35   1        -9.7351E+07  7.7817E+08 -1.7150E+08 -4.7257E-03  1.1534E-02 -6.3698E-03  
         35   2        -1.2396E+08  7.4473E+08 -1.5569E+08 -4.9625E-03  1.1170E-02 -5.7828E-03  
         35   3         2.5875E+08  6.7971E+08 -2.8525E+08  7.8331E-04  8.6013E-03 -1.0595E-02  
         35   4         2.3525E+08  6.5194E+08 -2.7161E+08  5.6674E-04  8.3051E-03 -1.0088E-02  
         36   1        -4.4230E+07  4.1152E+08 -1.3418E+08 -2.3955E-03  6.0684E-03 -4.9837E-03  
         36   2        -5.5544E+07  3.9956E+08 -1.2792E+08 -2.5059E-03  5.9461E-03 -4.7512E-03  
         36   3         4.8266E+07  3.6681E+08 -1.4947E+08 -8.8255E-04  5.0334E-03 -5.5517E-03  
         36   4         3.8531E+07  3.5681E+08 -1.4416E+08 -9.7875E-04  4.9322E-03 -5.3544E-03  
         37   1        -1.1758E+08  1.8656E+08 -5.6571E+07 -2.4792E-03  3.1690E-03 -2.1012E-03  
         37   2        -1.1541E+08  1.8882E+08 -5.7766E+07 -2.4579E-03  3.1920E-03 -2.1456E-03  
         37   3        -1.2598E+08  2.0941E+08 -5.9008E+07 -2.6971E-03  3.5315E-03 -2.1917E-03  
         37   4        -1.2338E+08  2.1204E+08 -6.0418E+07 -2.6714E-03  3.5579E-03 -2.2441E-03  
         38   1        -3.6380E+08 -9.8063E+07  9.1366E+07 -4.7768E-03  1.5823E-04  3.3936E-03  
         38   2        -3.4157E+08 -7.8558E+07  8.0213E+07 -4.5428E-03  3.4160E-04  2.9793E-03  
         38   3        -4.3439E+08  2.0728E+08  5.1858E+06 -7.0939E-03  4.8228E-03  1.9262E-04  
         38   4        -4.0766E+08  2.2933E+08 -7.7607E+06 -6.8066E-03  5.0233E-03 -2.8825E-04  
         39   1        -8.5571E+08 -3.2973E+08  2.8500E+08 -1.0811E-02 -1.0432E-03  1.0586E-02  
         39   2        -8.1076E+08 -3.0075E+08  2.6675E+08 -1.0293E-02 -8.2177E-04  9.9078E-03  
         39   3        -9.3543E+08  3.1894E+08 -6.5387E+07 -1.4730E-02  8.5653E-03 -2.4287E-03  
         39   4        -8.8281E+08  3.4863E+08 -8.4440E+07 -1.4106E-02  8.7639E-03 -3.1363E-03  
         40   1        -1.3717E+09 -3.6165E+08  4.0484E+08 -1.8046E-02  7.1244E-04  1.5037E-02  
         40   2        -1.3028E+09 -3.3644E+08  3.9161E+08 -1.7170E-02  7.7712E-04  1.4545E-02  
         40   3        -1.4159E+09  6.0507E+07 -3.7404E+08 -2.0487E-02  6.9325E-03 -1.3893E-02  
         40   4        -1.3422E+09  8.4005E+07 -3.8197E+08 -1.9534E-02  6.9522E-03 -1.4187E-02  
         41   1        -3.1131E+07  1.6700E+09  3.2165E+08 -7.6019E-03  2.3991E-02  1.1947E-02  
         41   2        -5.3120E+07  1.6009E+09  3.2895E+08 -7.6198E-03  2.3098E-02  1.2218E-02  
         41   3         3.6118E+08  1.6319E+09 -4.2013E+08 -1.8344E-03  2.1766E-02 -1.5605E-02  
         41   4         3.3763E+08  1.5673E+09 -4.0783E+08 -1.8935E-03  2.0943E-02 -1.5148E-02  
         42   1        -2.5051E+08  1.2247E+09 -1.4269E+07 -8.8276E-03  1.8570E-02 -5.2998E-04  
         42   2        -2.7965E+08  1.1720E+09  4.3964E+06 -9.0176E-03  1.7941E-02  1.6330E-04  
         42   3         3.7995E+08  1.1448E+09 -3.7941E+08  5.2139E-04  1.4726E-02 -1.4092E-02  
         42   4         3.5153E+08  1.0997E+09 -3.6141E+08  3.0897E-04  1.4203E-02 -1.3424E-02  
         43   1        -1.1527E+08  7.3766E+08 -1.3298E+08 -4.8081E-03  1.1032E-02 -4.9391E-03  
         43   2        -1.4047E+08  7.0574E+08 -1.1797E+08 -5.0313E-03  1.0684E-02 -4.3817E-03  
         43   3         2.2897E+08  6.4977E+08 -2.4782E+08  4.8626E-04  8.3011E-03 -9.2049E-03  
         43   4         2.0668E+08  6.2320E+08 -2.3483E+08  2.8172E-04  8.0171E-03 -8.7224E-03  
         44   1        -6.3639E+07  4.1194E+08 -1.1230E+08 -2.6746E-03  6.1576E-03 -4.1713E-03  
         44   2        -7.3771E+07  4.0032E+08 -1.0649E+08 -2.7695E-03  6.0350E-03 -3.9552E-03  
         44   3         1.5633E+07  3.6510E+08 -1.3312E+08 -1.3414E-03  5.1487E-03 -4.9445E-03  
         44   4         6.9171E+06  3.5538E+08 -1.2817E+08 -1.4242E-03  5.0472E-03 -4.7604E-03  
         45   1        -1.2302E+08  2.1551E+08 -6.1938E+07 -2.6810E-03  3.6059E-03 -2.3005E-03  
         45   2        -1.2074E+08  2.1701E+08 -6.2948E+07 -2.6550E-03  3.6176E-03 -2.3381E-03  
         45   3        -1.3861E+08  2.2400E+08 -6.9889E+07 -2.9401E-03  3.7940E-03 -2.5959E-03  
         45   4        -1.3588E+08  2.2575E+08 -7.1067E+07 -2.9087E-03  3.8074E-03 -2.6396E-03  
         46   1        -3.4064E+08 -6.4009E+07  5.9403E+07 -4.5920E-03  5.4548E-04  2.2064E-03  
         46   2        -3.1950E+08 -4.5740E+07  4.8889E+07 -4.3683E-03  7.1586E-04  1.8159E-03  
         46   3        -4.0437E+08  2.2557E+08 -2.8366E+07 -6.7434E-03  4.9554E-03 -1.0536E-03  
         46   4        -3.7899E+08  2.4619E+08 -4.0534E+07 -6.4693E-03  5.1413E-03 -1.5055E-03  
         47   1        -7.9216E+08 -3.1306E+08  2.4482E+08 -9.9749E-03 -1.0774E-03  9.0932E-03  
         47   2        -7.4857E+08 -2.8495E+08  2.2711E+08 -9.4726E-03 -8.6254E-04  8.4354E-03  
         47   3        -8.5776E+08  3.2905E+08 -1.0251E+08 -1.3664E-02  8.3769E-03 -3.8076E-03  
         47   4        -8.0687E+08  3.5777E+08 -1.2094E+08 -1.3060E-02  8.5690E-03 -4.4922E-03  
         48   1        -1.2667E+09 -3.6483E+08  3.8199E+08 -1.6532E-02  2.1682E-04  1.4188E-02  
         48   2        -1.1994E+09 -3.4020E+08  3.6905E+08 -1.5676E-02  2.8031E-04  1.3708E-02  
         48   3        -1.3018E+09  5.7710E+07 -3.8855E+08 -1.8844E-02  6.4035E-03 -1.4432E-02  
         48   4        -1.2300E+09  8.0611E+07 -3.9631E+08 -1.7916E-02  6.4228E-03 -1.4720E-02  
         49   1        -2.6595E+07  1.5635E+09  3.3462E+08 -7.0806E-03  2.2450E-02  1.2429E-02  
         49   2        -4.8064E+07  1.4960E+09  3.4178E+08 -7.0982E-03  2.1578E-02  1.2695E-02  
         49   3         3.6721E+08  1.5339E+09 -4.0035E+08 -1.3281E-03  2.0339E-02 -1.4870E-02  
         49   4         3.4416E+08  1.4707E+09 -3.8829E+08 -1.3863E-03  1.9535E-02 -1.4422E-02  
         50   1        -2.5777E+08  1.1460E+09  2.0159E+07 -8.5939E-03  1.7476E-02  7.4876E-04  
         50   2        -2.8608E+08  1.0948E+09  3.8294E+07 -8.7788E-03  1.6866E-02  1.4223E-03  
         50   3         3.7004E+08  1.0806E+09 -3.4230E+08  6.5531E-04  1.3851E-02 -1.2714E-02  
         50   4         3.4235E+08  1.0366E+09 -3.2477E+08  4.4802E-04  1.3342E-02 -1.2063E-02  
         51   1        -1.3128E+08  6.9749E+08 -9.7573E+07 -4.8647E-03  1.0527E-02 -3.6241E-03  
         51   2        -1.5518E+08  6.6696E+08 -8.3299E+07 -5.0753E-03  1.0193E-02 -3.0940E-03  
         51   3         2.0167E+08  6.1917E+08 -2.1341E+08  2.2747E-04  7.9809E-03 -7.9268E-03  
         51   4         1.8050E+08  5.9371E+08 -2.0103E+08  3.4054E-05  7.7080E-03 -7.4668E-03  
         52   1        -7.9589E+07  4.0908E+08 -9.2492E+07 -2.8902E-03  6.1851E-03 -3.4354E-03  
         52   2        -8.8812E+07  3.9764E+08 -8.6991E+07 -2.9729E-03  6.0612E-03 -3.2311E-03  
         52   3        -1.0968E+07  3.6030E+08 -1.1827E+08 -1.7008E-03  5.1941E-03 -4.3930E-03  
         52   4        -1.8898E+07  3.5072E+08 -1.1357E+08 -1.7731E-03  5.0914E-03 -4.2184E-03  
         53   1        -1.2523E+08  2.3829E+08 -6.6384E+07 -2.8102E-03  3.9408E-03 -2.4657E-03  
         53   2        -1.2276E+08  2.3924E+08 -6.7291E+07 -2.7790E-03  3.9438E-03 -2.4994E-03  
         53   3        -1.4723E+08  2.3509E+08 -7.9208E+07 -3.1108E-03  3.9894E-03 -2.9420E-03  
         53   4        -1.4426E+08  2.3621E+08 -8.0251E+07 -3.0732E-03  3.9928E-03 -2.9808E-03  
         54   1        -3.1657E+08 -3.3131E+07  3.0464E+07 -4.3804E-03  8.8342E-04  1.1315E-03  
         54   2        -2.9642E+08 -1.5996E+07  2.0537E+07 -4.1660E-03  1.0419E-03  7.6281E-04  
         54   3        -3.7416E+08  2.4159E+08 -5.8698E+07 -6.3805E-03  5.0548E-03 -2.1802E-03  
         54   4        -3.5001E+08  2.6091E+08 -7.0154E+07 -6.1184E-03  5.2273E-03 -2.6057E-03  
         55   1        -7.2943E+08 -2.9707E+08  2.0750E+08 -9.1473E-03 -1.1176E-03  7.7071E-03  
         55   2        -6.8711E+08 -2.6976E+08  1.9030E+08 -8.6598E-03 -9.0901E-04  7.0684E-03  
         55   3        -7.8177E+08  3.3888E+08 -1.3695E+08 -1.2621E-02  8.1916E-03 -5.0868E-03  
         55   4        -7.3251E+08  3.6669E+08 -1.5480E+08 -1.2036E-02  8.3777E-03 -5.7496E-03  
         56   1        -1.1637E+09 -3.6720E+08  3.6077E+08 -1.5051E-02 -2.5825E-04  1.3400E-02  
         56   2        -1.0980E+09 -3.4311E+08  3.4810E+08 -1.4215E-02 -1.9586E-04  1.2929E-02  
         56   3        -1.1903E+09  5.5940E+07 -4.0238E+08 -1.7243E-02  5.9002E-03 -1.4945E-02  
         56   4        -1.1202E+09  7.8287E+07 -4.0997E+08 -1.6338E-02  5.9191E-03 -1.5227E-02  
         57   1        -2.2970E+07  1.4592E+09  3.4702E+08 -6.5820E-03  2.0945E-02  1.2889E-02  
         57   2        -4.3956E+07  1.3933E+09  3.5404E+08 -6.5994E-03  2.0093E-02  1.3150E-02  
         57   3         3.7248E+08  1.4377E+09 -3.8190E+08 -8.4054E-04  1.8942E-02 -1.4185E-02  
         57   4         3.4989E+08  1.3758E+09 -3.7007E+08 -8.9796E-04  1.8155E-02 -1.3745E-02  
         58   1        -2.6491E+08  1.0690E+09  5.2320E+07 -8.3656E-03  1.6406E-02  1.9433E-03  
         58   2        -2.9242E+08  1.0192E+09  6.9953E+07 -8.5457E-03  1.5814E-02  2.5982E-03  
         58   3         3.6040E+08  1.0172E+09 -3.0762E+08  7.8914E-04  1.2987E-02 -1.1426E-02  
         58   4         3.3340E+08  9.7443E+08 -2.9053E+08  5.8673E-04  1.2492E-02 -1.0791E-02  
         59   1        -1.4549E+08  6.5769E+08 -6.5127E+07 -4.8971E-03  1.0019E-02 -2.4190E-03  
         59   2        -1.6820E+08  6.2843E+08 -5.1527E+07 -5.0961E-03  9.6985E-03 -1.9139E-03  
         59   3         1.7685E+08  5.8807E+08 -1.8189E+08  6.0985E-06  7.6431E-03 -6.7559E-03  
         59   4         1.5670E+08  5.6364E+08 -1.7006E+08 -1.7705E-04  7.3804E-03 -6.3165E-03  
         60   1        -9.2474E+07  4.0320E+08 -7.4547E+07 -3.0490E-03  6.1563E-03 -2.7689E-03  
         60   2        -1.0101E+08  3.9182E+08 -6.9270E+07 -3.1223E-03  6.0304E-03 -2.5729E-03  
         60   3        -3.2172E+07  3.5283E+08 -1.0480E+08 -1.9717E-03  5.1784E-03 -3.8927E-03  
         60   4        -3.9511E+07  3.4331E+08 -1.0028E+08 -2.0358E-03  5.0738E-03 -3.7247E-03  
         61   1        -1.2465E+08  2.5554E+08 -6.9964E+07 -2.8759E-03  4.1848E-03 -2.5987E-03  
         61   2        -1.2193E+08  2.5611E+08 -7.0831E+07 -2.8395E-03  4.1813E-03 -2.6309E-03  
         61   3        -1.5220E+08  2.4308E+08 -8.7098E+07 -3.2161E-03  4.1249E-03 -3.2351E-03  
         61   4        -1.4892E+08  2.4378E+08 -8.8083E+07 -3.1723E-03  4.1208E-03 -3.2717E-03  
         62   1        -2.9176E+08 -5.3364E+06  4.4164E+06 -4.1451E-03  1.1742E-03  1.6404E-04  
         62   2        -2.7252E+08  1.0761E+07 -4.9751E+06 -3.9393E-03  1.3217E-03 -1.8479E-04  
         62   3        -3.4384E+08  2.5549E+08 -8.5975E+07 -6.0069E-03  5.1234E-03 -3.1933E-03  
         62   4        -3.2082E+08  2.7361E+08 -9.6780E+07 -5.7557E-03  5.2837E-03 -3.5947E-03  
         63   1        -6.6754E+08 -2.8171E+08  1.7292E+08 -8.3289E-03 -1.1635E-03  6.4229E-03  
         63   2        -6.2641E+08 -2.5517E+08  1.5621E+08 -7.8552E-03 -9.6071E-04  5.8022E-03  
         63   3        -7.0741E+08  3.4842E+08 -1.6883E+08 -1.1599E-02  8.0092E-03 -6.2707E-03  
         63   4        -6.5967E+08  3.7537E+08 -1.8612E+08 -1.1033E-02  8.1896E-03 -6.9131E-03  
         64   1        -1.0627E+09 -3.6882E+08  3.4109E+08 -1.3601E-02 -7.1435E-04  1.2669E-02  
         64   2        -9.9841E+08 -3.4523E+08  3.2867E+08 -1.2783E-02 -6.5300E-04  1.2208E-02  
         64   3        -1.0811E+09  5.5106E+07 -4.1554E+08 -1.5680E-02  5.4205E-03 -1.5435E-02  
         64   4        -1.0126E+09  7.6940E+07 -4.2299E+08 -1.4796E-02  5.4391E-03 -1.5711E-02  
         65   1        -2.0178E+07  1.3571E+09  3.5887E+08 -6.1044E-03  1.9474E-02  1.3330E-02  
         65   2        -4.0715E+07  1.2926E+09  3.6578E+08 -6.1215E-03  1.8641E-02  1.3586E-02  
         65   3         3.7704E+08  1.3432E+09 -3.6472E+08 -3.7046E-04  1.7573E-02 -1.3547E-02  
         65   4         3.5488E+08  1.2826E+09 -3.5310E+08 -4.2709E-04  1.6802E-02 -1.3115E-02  
         66   1        -2.7189E+08  9.9357E+08  8.2314E+07 -8.1424E-03  1.5359E-02  3.0574E-03  
         66   2        -2.9867E+08  9.4526E+08  9.9472E+07 -8.3178E-03  1.4784E-02  3.6947E-03  
         66   3         3.5101E+08  9.5473E+08 -2.7526E+08  9.2280E-04  1.2135E-02 -1.0224E-02  
         66   4         3.2467E+08  9.1304E+08 -2.5858E+08  7.2503E-04  1.1652E-02 -9.6046E-03  
         67   1        -1.5801E+08  6.1827E+08 -3.5486E+07 -4.9070E-03  9.5097E-03 -1.3181E-03  
         67   2        -1.7962E+08  5.9019E+08 -2.2503E+07 -5.0953E-03  9.2010E-03 -8.3584E-04  
         67   3         1.5445E+08  5.5663E+08 -1.5312E+08 -1.7911E-04  7.2899E-03 -5.6873E-03  
         67   4         1.3524E+08  5.3312E+08 -1.4180E+08 -3.5283E-04  7.0365E-03 -5.2668E-03  
         68   1        -1.0264E+08  3.9456E+08 -5.8310E+07 -3.1573E-03  6.0765E-03 -2.1658E-03  
         68   2        -1.1068E+08  3.8317E+08 -5.3180E+07 -3.2233E-03  5.9482E-03 -1.9753E-03  
         68   3        -4.8556E+07  3.4310E+08 -9.2611E+07 -2.1641E-03  5.1096E-03 -3.4398E-03  
         68   4        -5.5463E+07  3.3356E+08 -8.8202E+07 -2.2219E-03  5.0029E-03 -3.2761E-03  
         69   1        -1.2170E+08  2.6786E+08 -7.2728E+07 -2.8865E-03  4.3482E-03 -2.7013E-03  
         69   2        -1.1869E+08  2.6819E+08 -7.3604E+07 -2.8450E-03  4.3400E-03 -2.7338E-03  
         69   3        -1.5388E+08  2.4834E+08 -9.3669E+07 -3.2626E-03  4.2071E-03 -3.4791E-03  
         69   4        -1.5026E+08  2.4877E+08 -9.4655E+07 -3.2127E-03  4.1978E-03 -3.5158E-03  
         70   1        -2.6640E+08  1.9492E+07 -1.8876E+07 -3.8892E-03  1.4202E-03 -7.0112E-04  
         70   2        -2.4799E+08  3.4643E+07 -2.7779E+07 -3.6911E-03  1.5577E-03 -1.0318E-03  
         70   3        -3.1348E+08  2.6738E+08 -1.1035E+08 -5.6242E-03  5.1633E-03 -4.0988E-03  
         70   4        -2.9148E+08  2.8442E+08 -1.2057E+08 -5.3830E-03  5.3124E-03 -4.4782E-03  
         71   1        -6.0649E+08 -2.6698E+08  1.4097E+08 -7.5200E-03 -1.2147E-03  5.2361E-03  
         71   2        -5.6650E+08 -2.4117E+08  1.2472E+08 -7.0593E-03 -1.0174E-03  4.6324E-03  
         71   3        -6.3463E+08  3.5766E+08 -1.9825E+08 -1.0599E-02  7.8293E-03 -7.3636E-03  
         71   4        -5.8833E+08  3.8381E+08 -2.1503E+08 -1.0050E-02  8.0044E-03 -7.9868E-03  
         72   1        -9.6352E+08 -3.6976E+08  3.2289E+08 -1.2180E-02 -1.1530E-03  1.1993E-02  
         72   2        -9.0052E+08 -3.4664E+08  3.1070E+08 -1.1379E-02 -1.0926E-03  1.1540E-02  
         72   3        -9.7416E+08  5.5122E+07 -4.2810E+08 -1.4153E-02  4.9624E-03 -1.5901E-02  
         72   4        -9.0722E+08  7.6482E+07 -4.3540E+08 -1.3288E-02  4.9807E-03 -1.6172E-02  
         73   1        -1.8149E+07  1.2569E+09  3.7023E+08 -5.6460E-03  1.8034E-02  1.3751E-02  
         73   2        -3.8269E+07  1.1938E+09  3.7702E+08 -5.6629E-03  1.7218E-02  1.4004E-02  
         73   3         3.8095E+08  1.2504E+09 -3.4876E+08  8.3316E-05  1.6230E-02 -1.2954E-02  
         73   4         3.5919E+08  1.1909E+09 -3.3734E+08  2.7434E-05  1.5474E-02 -1.2530E-02  
         74   1        -2.7872E+08  9.1978E+08  1.1023E+08 -7.9237E-03  1.4334E-02  4.0943E-03  
         74   2        -3.0479E+08  8.7280E+08  1.2694E+08 -8.0947E-03  1.3775E-02  4.7149E-03  
         74   3         3.4189E+08  8.9315E+08 -2.4513E+08  1.0564E-03  1.1294E-02 -9.1049E-03  
         74   4         3.1616E+08  8.5250E+08 -2.2885E+08  8.6301E-04  1.0824E-02 -8.5002E-03  
         75   1        -1.6892E+08  5.7927E+08 -8.5066E+06 -4.8958E-03  8.9993E-03 -3.1596E-04  
         75   2        -1.8953E+08  5.5225E+08  3.9123E+06 -5.0744E-03  8.7016E-03  1.4531E-04  
         75   3         1.3441E+08  5.2496E+08 -1.2697E+08 -3.2975E-04  6.9234E-03 -4.7159E-03  
         75   4         1.1605E+08  5.0231E+08 -1.1611E+08 -4.9483E-04  6.6785E-03 -4.3126E-03  
         76   1        -1.1040E+08  3.8346E+08 -4.3647E+07 -3.2206E-03  5.9511E-03 -1.6212E-03  
         76   2        -1.1809E+08  3.7199E+08 -3.8605E+07 -3.2812E-03  5.8202E-03 -1.4339E-03  
         76   3        -6.0652E+07  3.3147E+08 -8.1602E+07 -2.2870E-03  4.9952E-03 -3.0309E-03  
         76   4        -6.7258E+07  3.2186E+08 -7.7258E+07 -2.3402E-03  4.8862E-03 -2.8696E-03  
         77   1        -1.1676E+08  2.7579E+08 -7.4722E+07 -2.8499E-03  4.4403E-03 -2.7754E-03  
         77   2        -1.1345E+08  2.7600E+08 -7.5644E+07 -2.8036E-03  4.4290E-03 -2.8096E-03  
         77   3        -1.5263E+08  2.5117E+08 -9.9013E+07 -3.2569E-03  4.2423E-03 -3.6776E-03  
         77   4        -1.4864E+08  2.5147E+08 -1.0005E+08 -3.2012E-03  4.2295E-03 -3.7160E-03  
         78   1        -2.4063E+08  4.1490E+07 -3.9546E+07 -3.6154E-03  1.6240E-03 -1.4689E-03  
         78   2        -2.2298E+08  5.5777E+07 -4.8003E+07 -3.4244E-03  1.7524E-03 -1.7830E-03  
         78   3        -2.8316E+08  2.7741E+08 -1.3198E+08 -5.2340E-03  5.1765E-03 -4.9021E-03  
         78   4        -2.6209E+08  2.9346E+08 -1.4165E+08 -5.0019E-03  5.3155E-03 -5.2614E-03  
         79   1        -5.4632E+08 -2.5287E+08  1.1154E+08 -6.7208E-03 -1.2710E-03  4.1429E-03  
         79   2        -5.0738E+08 -2.2774E+08  9.5714E+07 -6.2723E-03 -1.0789E-03  3.5551E-03  
         79   3        -5.6339E+08  3.6660E+08 -2.2533E+08 -9.6196E-03  7.6517E-03 -8.3694E-03  
         79   4        -5.1844E+08  3.9198E+08 -2.4162E+08 -9.0863E-03  7.8216E-03 -8.9745E-03  
         80   1        -8.6601E+08 -3.7008E+08  3.0610E+08 -1.0785E-02 -1.5754E-03  1.1369E-02  
         80   2        -8.0422E+08 -3.4738E+08  2.9412E+08 -1.0000E-02 -1.5159E-03  1.0925E-02  
         80   3        -8.6928E+08  5.5909E+07 -4.4007E+08 -1.2658E-02  4.5242E-03 -1.6346E-02  
         80   4        -8.0372E+08  7.6832E+07 -4.4724E+08 -1.1811E-02  4.5421E-03 -1.6612E-02  
         81   1        -1.6814E+07  1.1585E+09  3.8110E+08 -5.2054E-03  1.6623E-02  1.4155E-02  
         81   2        -3.6547E+07  1.0966E+09  3.8778E+08 -5.2220E-03  1.5823E-02  1.4403E-02  
         81   3         3.8424E+08  1.1590E+09 -3.3396E+08  5.2189E-04  1.4911E-02 -1.2404E-02  
         81   4         3.6286E+08  1.1006E+09 -3.2272E+08  4.6671E-04  1.4168E-02 -1.1987E-02  
         82   1        -2.8539E+08  8.4754E+08  1.3615E+08 -7.7093E-03  1.3331E-02  5.0572E-03  
         82   2        -3.1079E+08  8.0183E+08  1.5243E+08 -7.8762E-03  1.2787E-02  5.6618E-03  
         82   3         3.3305E+08  8.3248E+08 -2.1715E+08  1.1900E-03  1.0465E-02 -8.0655E-03  
         82   4         3.0791E+08  7.9282E+08 -2.0125E+08  1.0009E-03  1.0006E-02 -7.4749E-03  
         83   1        -1.7833E+08  5.4071E+08  1.5950E+07 -4.8649E-03  8.4887E-03  5.9242E-04  
         83   2        -1.9803E+08  5.1466E+08  2.7853E+07 -5.0347E-03  8.2010E-03  1.0345E-03  
         83   3         1.1663E+08  4.9319E+08 -1.0330E+08 -4.4760E-04  6.5458E-03 -3.8370E-03  
         83   4         9.9060E+07  4.7132E+08 -9.2872E+07 -6.0480E-04  6.3086E-03 -3.4495E-03  
         84   1        -1.1603E+08  3.7018E+08 -3.0444E+07 -3.2441E-03  5.7856E-03 -1.1308E-03  
         84   2        -1.2349E+08  3.5860E+08 -2.5445E+07 -3.3010E-03  5.6521E-03 -9.4510E-04  
         84   3        -6.8955E+07  3.1826E+08 -7.1693E+07 -2.3490E-03  4.8420E-03 -2.6629E-03  
         84   4        -7.5365E+07  3.0855E+08 -6.7377E+07 -2.3990E-03  4.7308E-03 -2.5026E-03  
         85   1        -1.1019E+08  2.7983E+08 -7.5994E+07 -2.7734E-03  4.4698E-03 -2.8226E-03  
         85   2        -1.0657E+08  2.8000E+08 -7.6987E+07 -2.7224E-03  4.4568E-03 -2.8595E-03  
         85   3        -1.4881E+08  2.5188E+08 -1.0321E+08 -3.2054E-03  4.2361E-03 -3.8335E-03  
         85   4        -1.4445E+08  2.5215E+08 -1.0432E+08 -3.1443E-03  4.2212E-03 -3.8748E-03  
         86   1        -2.1461E+08  6.0804E+07 -5.7724E+07 -3.3265E-03  1.7884E-03 -2.1440E-03  
         86   2        -1.9765E+08  7.4304E+07 -6.5774E+07 -3.1420E-03  1.9086E-03 -2.4430E-03  
         86   3        -2.5293E+08  2.8567E+08 -1.5100E+08 -4.8376E-03  5.1650E-03 -5.6085E-03  
         86   4        -2.3272E+08  3.0082E+08 -1.6018E+08 -4.6139E-03  5.2948E-03 -5.9495E-03  
         87   1        -4.8702E+08 -2.3938E+08  8.4521E+07 -5.9316E-03 -1.3324E-03  3.1393E-03  
         87   2        -4.4909E+08 -2.1489E+08  6.9102E+07 -5.4946E-03 -1.1452E-03  2.5666E-03  
         87   3        -4.9365E+08  3.7521E+08 -2.5016E+08 -8.6602E-03  7.4758E-03 -9.2915E-03  
         87   4        -4.4997E+08  3.9988E+08 -2.6599E+08 -8.1419E-03  7.6410E-03 -9.8796E-03  
         88   1        -7.7005E+08 -3.6982E+08  2.9066E+08 -9.4158E-03 -1.9829E-03  1.0796E-02  
         88   2        -7.0938E+08 -3.4751E+08  2.7889E+08 -8.6447E-03 -1.9243E-03  1.0359E-02  
         88   3        -7.6630E+08  5.7393E+07 -4.5149E+08 -1.1193E-02  4.1040E-03 -1.6770E-02  
         88   4        -7.0202E+08  7.7912E+07 -4.5855E+08 -1.0363E-02  4.1217E-03 -1.7032E-02  
         89   1        -1.6112E+07  1.0619E+09  3.9152E+08 -4.7811E-03  1.5239E-02  1.4542E-02  
         89   2        -3.5485E+07  1.0011E+09  3.9810E+08 -4.7975E-03  1.4454E-02  1.4787E-02  
         89   3         3.8696E+08  1.0691E+09 -3.2028E+08  9.4629E-04  1.3614E-02 -1.1896E-02  
         89   4         3.6592E+08  1.0117E+09 -3.0921E+08  8.9178E-04  1.2884E-02 -1.1485E-02  
         90   1        -2.9187E+08  7.7682E+08  1.6016E+08 -7.4988E-03  1.2348E-02  5.9487E-03  
         90   2        -3.1663E+08  7.3229E+08  1.7603E+08 -7.6617E-03  1.1818E-02  6.5383E-03  
         90   3         3.2450E+08  7.7273E+08 -1.9123E+08  1.3240E-03  9.6483E-03 -7.1027E-03  
         90   4         2.9992E+08  7.3400E+08 -1.7569E+08  1.1388E-03  9.2004E-03 -6.5255E-03  
         91   1        -1.8633E+08  5.0260E+08  3.8012E+07 -4.8159E-03  7.9786E-03  1.4119E-03  
         91   2        -2.0520E+08  4.7744E+08  4.9444E+07 -4.9776E-03  7.7000E-03  1.8365E-03  
         91   3         1.0101E+08  4.6143E+08 -8.2003E+07 -5.3461E-04  6.1589E-03 -3.0458E-03  
         91   4         8.4158E+07  4.4027E+08 -7.1960E+07 -6.8460E-04  5.9289E-03 -2.6728E-03  
         92   1        -1.1979E+08  3.5501E+08 -1.8602E+07 -3.2328E-03  5.5850E-03 -6.9092E-04  
         92   2        -1.2711E+08  3.4331E+08 -1.3615E+07 -3.2872E-03  5.4492E-03 -5.0570E-04  
         92   3        -7.3927E+07  3.0378E+08 -6.2804E+07 -2.3580E-03  4.6565E-03 -2.3327E-03  
         92   4        -8.0224E+07  2.9396E+08 -5.8490E+07 -2.4059E-03  4.5432E-03 -2.1725E-03  
         93   1        -1.0230E+08  2.8046E+08 -7.6589E+07 -2.6634E-03  4.4450E-03 -2.8447E-03  
         93   2        -9.8387E+07  2.8067E+08 -7.7672E+07 -2.6084E-03  4.4312E-03 -2.8850E-03  
         93   3        -1.4277E+08  2.5072E+08 -1.0633E+08 -3.1141E-03  4.1937E-03 -3.9494E-03  
         93   4        -1.3806E+08  2.5104E+08 -1.0754E+08 -3.0482E-03  4.1780E-03 -3.9943E-03  
         94   1        -1.8848E+08  7.7587E+07 -7.3537E+07 -3.0250E-03  1.9161E-03 -2.7314E-03  
         94   2        -1.7215E+08  9.0369E+07 -8.1214E+07 -2.8465E-03  2.0288E-03 -3.0165E-03  
         94   3        -2.2287E+08  2.9229E+08 -1.6753E+08 -4.4366E-03  5.1307E-03 -6.2227E-03  
         94   4        -2.0345E+08  3.0661E+08 -1.7627E+08 -4.2205E-03  5.2521E-03 -6.5470E-03  
         95   1        -4.2862E+08 -2.2651E+08  5.9823E+07 -5.1525E-03 -1.3988E-03  2.2220E-03  
         95   2        -3.9164E+08 -2.0263E+08  4.4788E+07 -4.7264E-03 -1.2163E-03  1.6635E-03  
         95   3        -4.2536E+08  3.8350E+08 -2.7282E+08 -7.7202E-03  7.3015E-03 -1.0133E-02  
         95   4        -3.8288E+08  4.0749E+08 -2.8821E+08 -7.2162E-03  7.4622E-03 -1.0705E-02  
         96   1        -6.7554E+08 -3.6903E+08  2.7654E+08 -8.0690E-03 -2.3767E-03  1.0271E-02  
         96   2        -6.1589E+08 -3.4709E+08  2.6495E+08 -7.3110E-03 -2.3189E-03  9.8410E-03  
         96   3        -6.6508E+08  5.9505E+07 -4.6239E+08 -9.7561E-03  3.7004E-03 -1.7174E-02  
         96   4        -6.0198E+08  7.9651E+07 -4.6933E+08 -8.9411E-03  3.7178E-03 -1.7432E-02  
         97   1        -1.5984E+07  9.6680E+08  4.0150E+08 -4.3718E-03  1.3880E-02  1.4913E-02  
         97   2        -3.5024E+07  9.0711E+08  4.0799E+08 -4.3879E-03  1.3109E-02  1.5154E-02  
         97   3         3.8915E+08  9.8042E+08 -3.0768E+08  1.3575E-03  1.2338E-02 -1.1428E-02  
         97   4         3.6843E+08  9.2393E+08 -2.9677E+08  1.3036E-03  1.1620E-02 -1.1023E-02  
         98   1        -2.9816E+08  7.0756E+08  1.8231E+08 -7.2918E-03  1.1386E-02  6.7715E-03  
         98   2        -3.2232E+08  6.6416E+08  1.9780E+08 -7.4509E-03  1.0869E-02  7.3468E-03  
         98   3         3.1626E+08  7.1390E+08 -1.6730E+08  1.4584E-03  8.8432E-03 -6.2139E-03  
         98   4         2.9221E+08  6.7606E+08 -1.5210E+08  1.2771E-03  8.4056E-03 -5.6493E-03  
         99   1        -1.9301E+08  4.6498E+08  5.7801E+07 -4.7500E-03  7.4697E-03  2.1469E-03  
         99   2        -2.1111E+08  4.4064E+08  6.8802E+07 -4.9043E-03  7.1996E-03  2.5555E-03  
         99   3         8.7434E+07  4.2977E+08 -6.2944E+07 -5.9280E-04  5.7648E-03 -2.3379E-03  
         99   4         7.1242E+07  4.0926E+08 -5.3256E+07 -7.3623E-04  5.5413E-03 -1.9781E-03  
        100   1        -1.2190E+08  3.3824E+08 -8.0385E+06 -3.1910E-03  5.3544E-03 -2.9857E-04  
        100   2        -1.2916E+08  3.2642E+08 -3.0430E+06 -3.2440E-03  5.2166E-03 -1.1303E-04  
        100   3        -7.6004E+07  2.8831E+08 -5.4861E+07 -2.3214E-03  4.4445E-03 -2.0377E-03  
        100   4        -8.2250E+07  2.7838E+08 -5.0533E+07 -2.3681E-03  4.3294E-03 -1.8769E-03  
        101   1        -9.3405E+07  2.7810E+08 -7.6555E+07 -2.5262E-03  4.3732E-03 -2.8435E-03  
        101   2        -8.9215E+07  2.7841E+08 -7.7737E+07 -2.4677E-03  4.3596E-03 -2.8874E-03  
        101   3        -1.3485E+08  2.4794E+08 -1.0843E+08 -2.9890E-03  4.1199E-03 -4.0274E-03  
        101   4        -1.2981E+08  2.4837E+08 -1.0975E+08 -2.9189E-03  4.1045E-03 -4.0765E-03  
        102   1        -1.6234E+08  9.1996E+07 -8.7108E+07 -2.7134E-03  2.0100E-03 -3.2354E-03  
        102   2        -1.4660E+08  1.0412E+08 -9.4444E+07 -2.5405E-03  2.1157E-03 -3.5079E-03  
        102   3        -1.9305E+08  2.9736E+08 -1.8171E+08 -4.0322E-03  5.0753E-03 -6.7494E-03  
        102   4        -1.7435E+08  3.1093E+08 -1.9003E+08 -3.8233E-03  5.1891E-03 -7.0584E-03  
        103   1        -3.7113E+08 -2.1425E+08  3.7356E+07 -4.3837E-03 -1.4702E-03  1.3875E-03  
        103   2        -3.3504E+08 -1.9096E+08  2.2685E+07 -3.9680E-03 -1.2920E-03  8.4257E-04  
        103   3        -3.5849E+08  3.9145E+08 -2.9338E+08 -6.7989E-03  7.1285E-03 -1.0897E-02  
        103   4        -3.1715E+08  4.1480E+08 -3.0837E+08 -6.3084E-03  7.2849E-03 -1.1454E-02  
        104   1        -5.8236E+08 -3.6776E+08  2.6368E+08 -6.7433E-03 -2.7579E-03  9.7936E-03  
        104   2        -5.2365E+08 -3.4616E+08  2.5226E+08 -5.9972E-03 -2.7009E-03  9.3696E-03  
        104   3        -5.6548E+08  6.2180E+07 -4.7278E+08 -8.3448E-03  3.3118E-03 -1.7560E-02  
        104   4        -5.0347E+08  8.1983E+07 -4.7961E+08 -7.5437E-03  3.3289E-03 -1.7814E-02  
        105   1        -1.6374E+07  8.7319E+08  4.1106E+08 -3.9761E-03  1.2544E-02  1.5268E-02  
        105   2        -3.5106E+07  8.1448E+08  4.1746E+08 -3.9921E-03  1.1786E-02  1.5506E-02  
        105   3         3.9084E+08  8.9296E+08 -2.9612E+08  1.7564E-03  1.1082E-02 -1.0999E-02  
        105   4         3.7042E+08  8.3732E+08 -2.8536E+08  1.7031E-03  1.0374E-02 -1.0599E-02  
        106   1        -3.0424E+08  6.3974E+08  2.0267E+08 -7.0879E-03  1.0443E-02  7.5277E-03  
        106   2        -3.2782E+08  5.9741E+08  2.1779E+08 -7.2435E-03  9.9394E-03  8.0895E-03  
        106   3         3.0835E+08  6.5600E+08 -1.4528E+08  1.5936E-03  8.0499E-03 -5.3962E-03  
        106   4         2.8481E+08  6.1899E+08 -1.3041E+08  1.4159E-03  7.6221E-03 -4.8436E-03  
        107   1        -1.9844E+08  4.2787E+08  7.5431E+07 -4.6686E-03  6.9629E-03  2.8017E-03  
        107   2        -2.1585E+08  4.0429E+08  8.6037E+07 -4.8162E-03  6.7006E-03  3.1957E-03  
        107   3         7.5792E+07  3.9830E+08 -4.6007E+07 -6.2427E-04  5.3652E-03 -1.7088E-03  
        107   4         6.0200E+07  3.7840E+08 -3.6645E+07 -7.6171E-04  5.1477E-03 -1.3611E-03  
        108   1        -1.2256E+08  3.2015E+08  1.3171E+06 -3.1229E-03  5.0988E-03  4.8919E-05  
        108   2        -1.2980E+08  3.0822E+08  6.3322E+06 -3.1753E-03  4.9595E-03  2.3519E-04  
        108   3        -7.5594E+07  2.7212E+08 -4.7796E+07 -2.2461E-03  4.2114E-03 -1.7753E-03  
        108   4        -8.1833E+07  2.6209E+08 -4.3444E+07 -2.2923E-03  4.0949E-03 -1.6136E-03  
        109   1        -8.3769E+07  2.7318E+08 -7.5940E+07 -2.3675E-03  4.2616E-03 -2.8206E-03  
        109   2        -7.9335E+07  2.7362E+08 -7.7222E+07 -2.3060E-03  4.2489E-03 -2.8682E-03  
        109   3        -1.2537E+08  2.4375E+08 -1.0957E+08 -2.8356E-03  4.0194E-03 -4.0696E-03  
        109   4        -1.2005E+08  2.4433E+08 -1.1100E+08 -2.7621E-03  4.0049E-03 -4.1229E-03  
        110   1        -1.3633E+08  1.0419E+08 -9.8557E+07 -2.3941E-03  2.0727E-03 -3.6607E-03  
        110   2        -1.2113E+08  1.1572E+08 -1.0558E+08 -2.2263E-03  2.1722E-03 -3.9215E-03  
        110   3        -1.6353E+08  3.0098E+08 -1.9365E+08 -3.6260E-03  5.0005E-03 -7.1928E-03  
        110   4        -1.4550E+08  3.1386E+08 -2.0159E+08 -3.4237E-03  5.1073E-03 -7.4877E-03  
        111   1        -3.1456E+08 -2.0262E+08  1.7037E+07 -3.6254E-03 -1.5464E-03  6.3279E-04  
        111   2        -2.7932E+08 -1.7987E+08  2.7089E+06 -3.2194E-03 -1.3724E-03  1.0062E-04  
        111   3        -2.9301E+08  3.9904E+08 -3.1193E+08 -5.8960E-03  6.9563E-03 -1.1586E-02  
        111   4        -2.5273E+08  4.2179E+08 -3.2653E+08 -5.4182E-03  7.1087E-03 -1.2128E-02  
        112   1        -4.9041E+08 -3.6605E+08  2.5204E+08 -5.4370E-03 -3.1276E-03  9.3616E-03  
        112   2        -4.3256E+08 -3.4475E+08  2.4079E+08 -4.7019E-03 -3.0712E-03  8.9435E-03  
        112   3        -4.6738E+08  6.5357E+07 -4.8269E+08 -6.9570E-03  2.9367E-03 -1.7929E-02  
        112   4        -4.0636E+08  8.4846E+07 -4.8942E+08 -6.1688E-03  2.9536E-03 -1.8179E-02  
        113   1        -1.7233E+07  7.8093E+08  4.2023E+08 -3.5930E-03  1.1230E-02  1.5608E-02  
        113   2        -3.5679E+07  7.2313E+08  4.2654E+08 -3.6088E-03  1.0483E-02  1.5843E-02  
        113   3         3.9206E+08  8.0662E+08 -2.8558E+08  2.1439E-03  9.8429E-03 -1.0607E-02  
        113   4         3.7192E+08  7.5176E+08 -2.7496E+08  2.0912E-03  9.1455E-03 -1.0213E-02  
        114   1        -3.1009E+08  5.7331E+08  2.2130E+08 -6.8869E-03  9.5191E-03  8.2196E-03  
        114   2        -3.3314E+08  5.3200E+08  2.3607E+08 -7.0391E-03  9.0277E-03  8.7684E-03  
        114   3         3.0078E+08  5.9903E+08 -1.2511E+08  1.7296E-03  7.2685E-03 -4.6471E-03  
        114   4         2.7773E+08  5.6282E+08 -1.1055E+08  1.5555E-03  6.8501E-03 -4.1061E-03  
        115   1        -2.0270E+08  3.9131E+08  9.1009E+07 -4.5728E-03  6.4588E-03  3.3803E-03  
        115   2        -2.1947E+08  3.6842E+08  1.0125E+08 -4.7142E-03  6.2037E-03  3.7608E-03  
        115   3         6.5956E+07  3.6712E+08 -3.1076E+07 -6.3115E-04  4.9619E-03 -1.1543E-03  
        115   4         5.0913E+07  3.4777E+08 -2.2014E+07 -7.6313E-04  4.7500E-03 -8.1767E-04  
        116   1        -1.2196E+08  3.0100E+08  9.5261E+06 -3.0323E-03  4.8227E-03  3.5383E-04  
        116   2        -1.2922E+08  2.8901E+08  1.4563E+07 -3.0846E-03  4.6825E-03  5.4092E-04  
        116   3        -7.3082E+07  2.5543E+08 -4.1541E+07 -2.1387E-03  3.9622E-03 -1.5430E-03  
        116   4        -7.9343E+07  2.4533E+08 -3.7165E+07 -2.1849E-03  3.8448E-03 -1.3804E-03  
        117   1        -7.3642E+07  2.6609E+08 -7.4792E+07 -2.1924E-03  4.1169E-03 -2.7780E-03  
        117   2        -6.9005E+07  2.6668E+08 -7.6170E+07 -2.1287E-03  4.1055E-03 -2.8292E-03  
        117   3        -1.1464E+08  2.3835E+08 -1.0978E+08 -2.6591E-03  3.8962E-03 -4.0777E-03  
        117   4        -1.0908E+08  2.3911E+08 -1.1133E+08 -2.5831E-03  3.8833E-03 -4.1350E-03  
        118   1        -1.1054E+08  1.1433E+08 -1.0800E+08 -2.0691E-03  2.1070E-03 -4.0114E-03  
        118   2        -9.5846E+07  1.2530E+08 -1.1473E+08 -1.9062E-03  2.2008E-03 -4.2614E-03  
        118   3        -1.3438E+08  3.0324E+08 -2.0345E+08 -3.2193E-03  4.9079E-03 -7.5569E-03  
        118   4        -1.1698E+08  3.1549E+08 -2.1105E+08 -3.0233E-03  5.0084E-03 -7.8388E-03  
        119   1        -2.5892E+08 -1.9160E+08 -1.2169E+06 -2.8777E-03 -1.6275E-03 -4.5201E-05  
        119   2        -2.2449E+08 -1.6936E+08 -1.5218E+07 -2.4811E-03 -1.4574E-03 -5.6523E-04  
        119   3        -2.2888E+08  4.0628E+08 -3.2851E+08 -5.0108E-03  6.7848E-03 -1.2202E-02  
        119   4        -1.8962E+08  4.2845E+08 -3.4275E+08 -4.5451E-03  6.9334E-03 -1.2731E-02  
        120   1        -3.9958E+08 -3.6394E+08  2.4160E+08 -4.1485E-03 -3.4867E-03  8.9739E-03  
        120   2        -3.4251E+08 -3.4293E+08  2.3049E+08 -3.4234E-03 -3.4310E-03  8.5612E-03  
        120   3        -3.7066E+08  6.8979E+07 -4.9214E+08 -5.5908E-03  2.5740E-03 -1.8279E-02  
        120   4        -3.1055E+08  8.8179E+07 -4.9878E+08 -4.8143E-03  2.5906E-03 -1.8526E-02  
        121   1        -1.8511E+07  6.8994E+08  4.2900E+08 -3.2213E-03  9.9357E-03  1.5934E-02  
        121   2        -3.6694E+07  6.3297E+08  4.3523E+08 -3.2369E-03  9.1997E-03  1.6166E-02  
        121   3         3.9286E+08  7.2131E+08 -2.7604E+08  2.5209E-03  8.6208E-03 -1.0253E-02  
        121   4         3.7297E+08  6.6717E+08 -2.6555E+08  2.4688E-03  7.9326E-03 -9.8631E-03  
        122   1        -3.1572E+08  5.0824E+08  2.3824E+08 -6.6884E-03  8.6136E-03  8.8490E-03  
        122   2        -3.3824E+08  4.6789E+08  2.5269E+08 -6.8373E-03  8.1338E-03  9.3855E-03  
        122   3         2.9357E+08  5.4300E+08 -1.0673E+08  1.8668E-03  6.4990E-03 -3.9643E-03  
        122   4         2.7098E+08  5.0756E+08 -9.2459E+07  1.6959E-03  6.0895E-03 -3.4342E-03  
        123   1        -2.0587E+08  3.5532E+08  1.0464E+08 -4.4639E-03  5.9583E-03  3.8865E-03  
        123   2        -2.2205E+08  3.3309E+08  1.1454E+08 -4.5997E-03  5.7101E-03  4.2545E-03  
        123   3         5.7797E+07  3.3629E+08 -1.8042E+07 -6.1558E-04  4.5565E-03 -6.7014E-04  
        123   4         4.3260E+07  3.1746E+08 -9.2569E+06 -7.4256E-04  4.3498E-03 -3.4383E-04  
        124   1        -1.2027E+08  2.8107E+08  1.6641E+07 -2.9227E-03  4.5307E-03  6.1811E-04  
        124   2        -1.2757E+08  2.6905E+08  2.1695E+07 -2.9754E-03  4.3902E-03  8.0583E-04  
        124   3        -6.8830E+07  2.3846E+08 -3.6036E+07 -2.0053E-03  3.7015E-03 -1.3385E-03  
        124   4        -7.5128E+07  2.2832E+08 -3.1640E+07 -2.0518E-03  3.5837E-03 -1.1752E-03  
        125   1        -6.3250E+07  2.5718E+08 -7.3160E+07 -2.0058E-03  3.9451E-03 -2.7174E-03  
        125   2        -5.8457E+07  2.5794E+08 -7.4625E+07 -1.9406E-03  3.9354E-03 -2.7718E-03  
        125   3        -1.0295E+08  2.3192E+08 -1.0913E+08 -2.4647E-03  3.7543E-03 -4.0533E-03  
        125   4        -9.7225E+07  2.3287E+08 -1.1077E+08 -2.3869E-03  3.7434E-03 -4.1143E-03  
        126   1        -8.5070E+07  1.2257E+08 -1.1555E+08 -1.7406E-03  2.1157E-03 -4.2919E-03  
        126   2        -7.0860E+07  1.3304E+08 -1.2201E+08 -1.5824E-03  2.2042E-03 -4.5318E-03  
        126   3        -1.0568E+08  3.0423E+08 -2.1122E+08 -2.8135E-03  4.7990E-03 -7.8455E-03  
        126   4        -8.8872E+07  3.1590E+08 -2.1849E+08 -2.6235E-03  4.8937E-03 -8.1153E-03  
        127   1        -2.0422E+08 -1.8119E+08 -1.7480E+07 -2.1409E-03 -1.7131E-03 -6.4927E-04  
        127   2        -1.7056E+08 -1.5944E+08 -3.1170E+07 -1.7532E-03 -1.5468E-03 -1.1578E-03  
        127   3        -1.6607E+08  4.1314E+08 -3.4320E+08 -4.1431E-03  6.6137E-03 -1.2747E-02  
        127   4        -1.2779E+08  4.3477E+08 -3.5708E+08 -3.6888E-03  6.7586E-03 -1.3263E-02  
        128   1        -3.0978E+08 -3.6147E+08  2.3233E+08 -2.8762E-03 -3.8362E-03  8.6295E-03  
        128   2        -2.5342E+08 -3.4071E+08  2.2136E+08 -2.1601E-03 -3.7812E-03  8.2220E-03  
        128   3        -2.7521E+08  7.2992E+07 -5.0114E+08 -4.2443E-03  2.2222E-03 -1.8614E-02  
        128   4        -2.1592E+08  9.1928E+07 -5.0768E+08 -3.4786E-03  2.2386E-03 -1.8857E-02  
        129   1        -2.0163E+07  6.0012E+08  4.3740E+08 -2.8600E-03  8.6595E-03  1.6246E-02  
        129   2        -3.8104E+07  5.4391E+08  4.4356E+08 -2.8754E-03  7.9334E-03  1.6475E-02  
        129   3         3.9326E+08  6.3695E+08 -2.6746E+08  2.8881E-03  7.4139E-03 -9.9342E-03  
        129   4         3.7360E+08  5.8347E+08 -2.5709E+08  2.8365E-03  6.7341E-03 -9.5490E-03  
        130   1        -3.2110E+08  4.4450E+08  2.5355E+08 -6.4922E-03  7.7261E-03  9.4176E-03  
        130   2        -3.4313E+08  4.0508E+08  2.6768E+08 -6.6379E-03  7.2574E-03  9.9424E-03  
        130   3         2.8673E+08  4.8792E+08 -9.0066E+07  2.0051E-03  5.7414E-03 -3.3453E-03  
        130   4         2.6458E+08  4.5320E+08 -7.6076E+07  1.8374E-03  5.3404E-03 -2.8257E-03  
        131   1        -2.0802E+08  3.1996E+08  1.1641E+08 -4.3430E-03  5.4623E-03  4.3236E-03  
        131   2        -2.2366E+08  2.9833E+08  1.2600E+08 -4.4737E-03  5.2204E-03  4.6801E-03  
        131   3         5.1188E+07  3.0589E+08 -6.7963E+06 -5.7971E-04  4.1505E-03 -2.5243E-04  
        131   4         3.7117E+07  2.8755E+08  1.7314E+06 -7.0211E-04  3.9488E-03  6.4311E-05  
        132   1        -1.1764E+08  2.6061E+08  2.2709E+07 -2.7974E-03  4.2271E-03  8.4347E-04  
        132   2        -1.2497E+08  2.4861E+08  2.7768E+07 -2.8507E-03  4.0871E-03  1.0314E-03  
        132   3        -6.3180E+07  2.2140E+08 -3.1220E+07 -1.8514E-03  3.4336E-03 -1.1596E-03  
        132   4        -6.9516E+07  2.1127E+08 -2.6815E+07 -1.8985E-03  3.3160E-03 -9.9598E-04  
        133   1        -5.2798E+07  2.4681E+08 -7.1093E+07 -1.8120E-03  3.7521E-03 -2.6406E-03  
        133   2        -4.7904E+07  2.4774E+08 -7.2631E+07 -1.7461E-03  3.7444E-03 -2.6977E-03  
        133   3        -9.0606E+07  2.2462E+08 -1.0763E+08 -2.2570E-03  3.5972E-03 -3.9978E-03  
        133   4        -8.4765E+07  2.2577E+08 -1.0936E+08 -2.1785E-03  3.5885E-03 -4.0619E-03  
        134   1        -6.0018E+07  1.2908E+08 -1.2132E+08 -1.4106E-03  2.1012E-03 -4.5062E-03  
        134   2        -4.6267E+07  1.3907E+08 -1.2753E+08 -1.2569E-03  2.1849E-03 -4.7367E-03  
        134   3        -7.7482E+07  3.0403E+08 -2.1706E+08 -2.4099E-03  4.6754E-03 -8.0621E-03  
        134   4        -6.1245E+07  3.1516E+08 -2.2402E+08 -2.2256E-03  4.7648E-03 -8.3207E-03  
        135   1        -1.5048E+08 -1.7137E+08 -3.1827E+07 -1.4152E-03 -1.8033E-03 -1.1821E-03  
        135   2        -1.1755E+08 -1.5010E+08 -4.5220E+07 -1.0359E-03 -1.6405E-03 -1.6796E-03  
        135   3        -1.0458E+08  4.1962E+08 -3.5602E+08 -3.2924E-03  6.4428E-03 -1.3224E-02  
        135   4        -6.7216E+07  4.4073E+08 -3.6958E+08 -2.8491E-03  6.5842E-03 -1.3727E-02  
        136   1        -2.2092E+08 -3.5867E+08  2.2421E+08 -1.6188E-03 -4.1770E-03  8.3277E-03  
        136   2        -1.6520E+08 -3.3815E+08  2.1336E+08 -9.1086E-04 -4.1226E-03  7.9248E-03  
        136   3        -1.8091E+08  7.7343E+07 -5.0970E+08 -2.9158E-03  1.8802E-03 -1.8932E-02  
        136   4        -1.2237E+08  9.6041E+07 -5.1616E+08 -2.1597E-03  1.8965E-03 -1.9172E-02  
        137   1        -2.2145E+07  5.1136E+08  4.4543E+08 -2.5079E-03  7.4001E-03  1.6545E-02  
        137   2        -3.9864E+07  4.5585E+08  4.5152E+08 -2.5231E-03  6.6830E-03  1.6771E-02  
        137   3         3.9329E+08  5.5346E+08 -2.5983E+08  3.2464E-03  6.2211E-03 -9.6509E-03  
        137   4         3.7385E+08  5.0058E+08 -2.4957E+08  3.1953E-03  5.5489E-03 -9.2699E-03  
        138   1        -3.2623E+08  3.8207E+08  2.6726E+08 -6.2978E-03  6.8562E-03  9.9269E-03  
        138   2        -3.4778E+08  3.4353E+08  2.8109E+08 -6.4406E-03  6.3981E-03  1.0440E-02  
        138   3         2.8025E+08  4.3378E+08 -7.5060E+07  2.1446E-03  4.9958E-03 -2.7879E-03  
        138   4         2.5852E+08  3.9976E+08 -6.1340E+07  1.9799E-03  4.6029E-03 -2.2783E-03  
        139   1        -2.0921E+08  2.8525E+08  1.2641E+08 -4.2112E-03  4.9716E-03  4.6951E-03  
        139   2        -2.2434E+08  2.6420E+08  1.3571E+08 -4.3372E-03  4.7358E-03  5.0408E-03  
        139   3         4.5998E+07  2.7598E+08  2.7652E+06 -5.2568E-04  3.7455E-03  1.0271E-04  
        139   4         3.2360E+07  2.5810E+08  1.1052E+07 -6.4387E-04  3.5485E-03  4.1051E-04  
        140   1        -1.1420E+08  2.3986E+08  2.7768E+07 -2.6594E-03  3.9160E-03  1.0314E-03  
        140   2        -1.2155E+08  2.2794E+08  3.2816E+07 -2.7133E-03  3.7772E-03  1.2189E-03  
        140   3        -5.6449E+07  2.0442E+08 -2.7037E+07 -1.6825E-03  3.1622E-03 -1.0042E-03  
        140   4        -6.2817E+07  1.9434E+08 -2.2638E+07 -1.7303E-03  3.0455E-03 -8.4083E-04  
        141   1        -4.2470E+07  2.3528E+08 -6.8641E+07 -1.6151E-03  3.5432E-03 -2.5495E-03  
        141   2        -3.7534E+07  2.3637E+08 -7.0234E+07 -1.5492E-03  3.5375E-03 -2.6087E-03  
        141   3        -7.7858E+07  2.1662E+08 -1.0534E+08 -2.0406E-03  3.4283E-03 -3.9126E-03  
        141   4        -7.1976E+07  2.1794E+08 -1.0713E+08 -1.9623E-03  3.4220E-03 -3.9791E-03  
        142   1        -3.5466E+07  1.3400E+08 -1.2541E+08 -1.0809E-03  2.0663E-03 -4.6582E-03  
        142   2        -2.2156E+07  1.4354E+08 -1.3138E+08 -9.3169E-04  2.1456E-03 -4.8798E-03  
        142   3        -4.9874E+07  3.0273E+08 -2.2104E+08 -2.0099E-03  4.5385E-03 -8.2101E-03  
        142   4        -3.4181E+07  3.1335E+08 -2.2772E+08 -1.8312E-03  4.6230E-03 -8.4580E-03  
        143   1        -9.7701E+07 -1.6215E+08 -4.4326E+07 -7.0082E-04 -1.8976E-03 -1.6464E-03  
        143   2        -6.5472E+07 -1.4132E+08 -5.7436E+07 -3.2964E-04 -1.7383E-03 -2.1333E-03  
        143   3        -4.4380E+07  4.2571E+08 -3.6704E+08 -2.4585E-03  6.2717E-03 -1.3633E-02  
        143   4        -7.8980E+06  4.4633E+08 -3.8028E+08 -2.0257E-03  6.4099E-03 -1.4125E-02  
        144   1        -1.3290E+08 -3.5557E+08  2.1721E+08 -3.7476E-04 -4.5100E-03  8.0677E-03  
        144   2        -7.7768E+07 -3.3527E+08  2.0648E+08  3.2589E-04 -4.4562E-03  7.6691E-03  
        144   3        -8.7659E+07  8.1986E+07 -5.1784E+08 -1.6036E-03  1.5469E-03 -1.9234E-02  
        144   4        -2.9797E+07  1.0047E+08 -5.2422E+08 -8.5625E-04  1.5629E-03 -1.9471E-02  
        145   1        -2.4416E+07  4.2359E+08  4.5311E+08 -2.1642E-03  6.1560E-03  1.6830E-02  
        145   2        -4.1932E+07  3.6872E+08  4.5912E+08 -2.1793E-03  5.4472E-03  1.7053E-02  
        145   3         3.9298E+08  4.7077E+08 -2.5314E+08  3.5964E-03  5.0411E-03 -9.4024E-03  
        145   4         3.7374E+08  4.1843E+08 -2.4299E+08  3.5458E-03  4.3758E-03 -9.0254E-03  
        146   1        -3.3108E+08  3.2092E+08  2.7942E+08 -6.1052E-03  6.0035E-03  1.0378E-02  
        146   2        -3.5219E+08  2.8323E+08  2.9295E+08 -6.2451E-03  5.5555E-03  1.0881E-02  
        146   3         2.7415E+08  3.8060E+08 -6.1654E+07  2.2853E-03  4.2623E-03 -2.2900E-03  
        146   4         2.5282E+08  3.4725E+08 -4.8194E+07  2.1235E-03  3.8772E-03 -1.7901E-03  
        147   1        -2.0951E+08  2.5124E+08  1.3473E+08 -4.0697E-03  4.4870E-03  5.0041E-03  
        147   2        -2.2417E+08  2.3075E+08  1.4376E+08 -4.1913E-03  4.2571E-03  5.3395E-03  
        147   3         4.2098E+07  2.4663E+08  1.0743E+07 -4.5560E-04  3.3429E-03  3.9904E-04  
        147   4         2.8865E+07  2.2919E+08  1.8803E+07 -5.6990E-04  3.1505E-03  6.9841E-04  
        148   1        -1.1008E+08  2.1906E+08  3.1854E+07 -2.5113E-03  3.6011E-03  1.1831E-03  
        148   2        -1.1744E+08  2.0728E+08  3.6869E+07 -2.5660E-03  3.4644E-03  1.3694E-03  
        148   3        -4.8938E+07  1.8768E+08 -2.3434E+07 -1.5034E-03  2.8908E-03 -8.7040E-04  
        148   4        -5.5319E+07  1.7771E+08 -1.9059E+07 -1.5519E-03  2.7758E-03 -7.0791E-04  
        149   1        -3.2431E+07  2.2290E+08 -6.5854E+07 -1.4186E-03  3.3233E-03 -2.4460E-03  
        149   2        -2.7515E+07  2.2413E+08 -6.7481E+07 -1.3536E-03  3.3198E-03 -2.5065E-03  
        149   3        -6.4962E+07  2.0806E+08 -1.0228E+08 -1.8197E-03  3.2506E-03 -3.7991E-03  
        149   4        -5.9115E+07  2.0953E+08 -1.0411E+08 -1.7425E-03  3.2467E-03 -3.8670E-03  
        150   1        -1.1491E+07  1.3749E+08 -1.2794E+08 -7.5340E-04  2.0134E-03 -4.7519E-03  
        150   2         1.3877E+06  1.4661E+08 -1.3367E+08 -6.0851E-04  2.0885E-03 -4.9650E-03  
        150   3        -2.2922E+07  3.0039E+08 -2.2326E+08 -1.6149E-03  4.3896E-03 -8.2926E-03  
        150   4        -7.7598E+06  3.1054E+08 -2.2967E+08 -1.4417E-03  4.4695E-03 -8.5304E-03  
        151   1        -4.5905E+07 -1.5349E+08 -5.5045E+07  2.0340E-06 -1.9960E-03 -2.0445E-03  
        151   2        -1.4353E+07 -1.3310E+08 -6.7883E+07  3.6539E-04 -1.8399E-03 -2.5214E-03  
        151   3         1.4540E+07  4.3140E+08 -3.7629E+08 -1.6411E-03  6.1005E-03 -1.3977E-02  
        151   4         5.0175E+07  4.5154E+08 -3.8922E+08 -1.2184E-03  6.2355E-03 -1.4457E-02  
        152   1        -4.5659E+07 -3.5221E+08  2.1132E+08  8.5721E-04 -4.8359E-03  7.8489E-03  
        152   2         8.9660E+06 -3.3210E+08  2.0069E+08  1.5514E-03 -4.7828E-03  7.4543E-03  
        152   3         4.6340E+06  8.6873E+07 -5.2556E+08 -3.0611E-04  1.2212E-03 -1.9521E-02  
        152   4         6.1892E+07  1.0516E+08 -5.3187E+08  4.3349E-04  1.2370E-03 -1.9755E-02  
        153   1        -2.6938E+07  3.3673E+08  4.6044E+08 -1.8280E-03  4.9259E-03  1.7102E-02  
        153   2        -4.4269E+07  2.8244E+08  4.6639E+08 -1.8428E-03  4.2245E-03  1.7323E-02  
        153   3         3.9236E+08  3.8880E+08 -2.4738E+08  3.9388E-03  3.8728E-03 -9.1884E-03  
        153   4         3.7330E+08  3.3695E+08 -2.3732E+08  3.8888E-03  3.2138E-03 -8.8149E-03  
        154   1        -3.3567E+08  2.6104E+08  2.9004E+08 -5.9140E-03  5.1677E-03  1.0773E-02  
        154   2        -3.5633E+08  2.2417E+08  3.0330E+08 -6.0512E-03  4.7295E-03  1.1265E-02  
        154   3         2.6842E+08  3.2839E+08 -4.9793E+07  2.4272E-03  3.5409E-03 -1.8494E-03  
        154   4         2.4748E+08  2.9568E+08 -3.6582E+07  2.2682E-03  3.1634E-03 -1.3587E-03  
        155   1        -2.0898E+08  2.1798E+08  1.4144E+08 -3.9196E-03  4.0096E-03  5.2535E-03  
        155   2        -2.2319E+08  1.9802E+08  1.5021E+08 -4.0371E-03  3.7853E-03  5.5793E-03  
        155   3         3.9358E+07  2.1789E+08  1.7236E+07 -3.7155E-04  2.9440E-03  6.4019E-04  
        155   4         2.6506E+07  2.0087E+08  2.5080E+07 -4.8223E-04  2.7560E-03  9.3155E-04  
        156   1        -1.0539E+08  1.9842E+08  3.4999E+07 -2.3559E-03  3.2862E-03  1.2999E-03  
        156   2        -1.1272E+08  1.8685E+08  3.9956E+07 -2.4111E-03  3.1524E-03  1.4841E-03  
        156   3        -4.0924E+07  1.7131E+08 -2.0359E+07 -1.3188E-03  2.6227E-03 -7.5618E-04  
        156   4        -4.7293E+07  1.6152E+08 -1.6031E+07 -1.3678E-03  2.5101E-03 -5.9545E-04  
        157   1        -2.2829E+07  2.0995E+08 -6.2781E+07 -1.2259E-03  3.0971E-03 -2.3319E-03  
        157   2        -1.7999E+07  2.1130E+08 -6.4419E+07 -1.1627E-03  3.0957E-03 -2.3927E-03  
        157   3        -5.2156E+07  1.9905E+08 -9.8494E+07 -1.5981E-03  3.0671E-03 -3.6583E-03  
        157   4        -4.6420E+07  2.0066E+08 -1.0034E+08 -1.5231E-03  3.0655E-03 -3.7268E-03  
        158   1         1.1832E+07  1.3969E+08 -1.2899E+08 -4.2965E-04  1.9449E-03 -4.7911E-03  
        158   2         2.4287E+07  1.4842E+08 -1.3451E+08 -2.8912E-04  2.0162E-03 -4.9959E-03  
        158   3         3.3022E+06  2.9710E+08 -2.2381E+08 -1.2261E-03  4.2301E-03 -8.3128E-03  
        158   4         1.7942E+07  3.0679E+08 -2.2995E+08 -1.0585E-03  4.3058E-03 -8.5408E-03  
        159   1         4.8958E+06 -1.4539E+08 -6.4050E+07  6.9305E-04 -2.0980E-03 -2.3790E-03  
        159   2         3.5793E+07 -1.2542E+08 -7.6625E+07  1.0488E-03 -1.9451E-03 -2.8461E-03  
        159   3         7.2187E+07  4.3667E+08 -3.8381E+08 -8.4020E-04  5.9288E-03 -1.4256E-02  
        159   4         1.0700E+08  4.5636E+08 -3.9644E+08 -4.2721E-04  6.0608E-03 -1.4725E-02  
        160   1         4.0902E+07 -3.4862E+08  2.0652E+08  2.0784E-03 -5.1556E-03  7.6709E-03  
        160   2         9.5077E+07 -3.2869E+08  1.9600E+08  2.7669E-03 -5.1030E-03  7.2799E-03  
        160   3         9.6067E+07  9.1960E+07 -5.3288E+08  9.7828E-04  9.0200E-04 -1.9793E-02  
        160   4         1.5279E+08  1.1007E+08 -5.3912E+08  1.7110E-03  9.1764E-04 -2.0024E-02  
        161   1        -2.9785E+07  2.5068E+08  4.6757E+08 -1.4998E-03  3.7088E-03  1.7367E-02  
        161   2        -4.6941E+07  1.9693E+08  4.7346E+08 -1.5146E-03  3.0145E-03  1.7586E-02  
        161   3         3.9179E+08  3.0766E+08 -2.4201E+08  4.2785E-03  2.7160E-03 -8.9890E-03  
        161   4         3.7290E+08  2.5627E+08 -2.3205E+08  4.2289E-03  2.0628E-03 -8.6189E-03  
        162   1        -3.3991E+08  2.0235E+08  2.9909E+08 -5.7231E-03  4.3475E-03  1.1109E-02  
        162   2        -3.6019E+08  1.6612E+08  3.1210E+08 -5.8576E-03  3.9169E-03  1.1592E-02  
        162   3         2.6206E+08  2.7629E+08 -4.1173E+07  2.5596E-03  2.8239E-03 -1.5293E-03  
        162   4         2.4147E+08  2.4409E+08 -2.8180E+07  2.4035E-03  2.4521E-03 -1.0467E-03  
        163   1        -2.0769E+08  1.8584E+08  1.4685E+08 -3.7635E-03  3.5450E-03  5.4543E-03  
        163   2        -2.2136E+08  1.6700E+08  1.5523E+08 -3.8781E-03  3.3344E-03  5.7656E-03  
        163   3         4.0503E+07  1.9357E+08  2.7936E+07 -2.5096E-04  2.5917E-03  1.0376E-03  
        163   4         2.8107E+07  1.7747E+08  3.5437E+07 -3.5905E-04  2.4148E-03  1.3162E-03  
        164   1        -1.0020E+08  1.7664E+08  3.6649E+07 -2.1884E-03  2.9529E-03  1.3613E-03  
        164   2        -1.0804E+08  1.6279E+08  4.2304E+07 -2.2411E-03  2.7886E-03  1.5713E-03  
        164   3        -4.0580E+07  1.4019E+08 -3.5289E+07 -1.1805E-03  2.1766E-03 -1.3107E-03  
        164   4        -4.7380E+07  1.2845E+08 -3.0334E+07 -1.2273E-03  2.0380E-03 -1.1267E-03  
        165   1        -3.7064E+07  1.2581E+08 -6.9188E+07 -1.0687E-03  1.9561E-03 -2.5698E-03  
        165   2        -3.2006E+07  1.2649E+08 -7.0700E+07 -9.9933E-04  1.9442E-03 -2.6260E-03  
        165   3        -7.2865E+07  9.7092E+07 -1.1059E+08 -1.4570E-03  1.6993E-03 -4.1077E-03  
        165   4        -6.6851E+07  9.7956E+07 -1.1227E+08 -1.3748E-03  1.6859E-03 -4.1702E-03  
        166   1        -2.1322E+06  3.5548E+07 -1.4541E+08 -1.8281E-04  5.1696E-04 -5.4010E-03  
        166   2         9.5621E+06  4.4006E+07 -1.5068E+08 -5.1996E-05  5.8768E-04 -5.5966E-03  
        166   3        -3.3426E+06  1.9604E+08 -2.3488E+08 -8.8791E-04  2.8149E-03 -8.7239E-03  
        166   4         1.0368E+07  2.0540E+08 -2.4074E+08 -7.3217E-04  2.8898E-03 -8.9417E-03  
        167   1         2.4170E+07 -2.3568E+08 -7.9137E+07  1.3554E-03 -3.4705E-03 -2.9394E-03  
        167   2         5.4375E+07 -2.1613E+08 -9.1441E+07  1.7031E-03 -3.3206E-03 -3.3964E-03  
        167   3         9.8116E+07  3.4325E+08 -3.9669E+08 -6.9400E-05  4.4830E-03 -1.4734E-02  
        167   4         1.3207E+08  3.6247E+08 -4.0903E+08  3.3333E-04  4.6121E-03 -1.5193E-02  
        168   1         9.6288E+07 -4.4580E+08  1.9909E+08  3.2861E-03 -6.7812E-03  7.3946E-03  
        168   2         1.4996E+08 -4.2605E+08  1.8865E+08  3.9681E-03 -6.7291E-03  7.0071E-03  
        168   3         1.5677E+08 -2.3146E+06 -5.4180E+08  2.2494E-03 -7.0492E-04 -2.0124E-02  
        168   4         2.1289E+08  1.5608E+07 -5.4798E+08  2.9744E-03 -6.8942E-04 -2.0354E-02  
        169   1        -3.2761E+07  1.6540E+08  4.7420E+08 -1.1769E-03  2.5033E-03  1.7613E-02  
        169   2        -4.9768E+07  1.1212E+08  4.8003E+08 -1.1915E-03  1.8150E-03  1.7830E-02  
        169   3         3.9083E+08  2.2703E+08 -2.3814E+08  4.6103E-03  1.5683E-03 -8.8453E-03  
        169   4         3.7209E+08  1.7602E+08 -2.2826E+08  4.5611E-03  9.1998E-04 -8.4782E-03  
        170   1        -3.4392E+08  1.4475E+08  3.0678E+08 -5.5335E-03  3.5418E-03  1.1395E-02  
        170   2        -3.6378E+08  1.0931E+08  3.1952E+08 -5.6653E-03  3.1206E-03  1.1868E-02  
        170   3         2.5651E+08  2.2574E+08 -3.1985E+07  2.6969E-03  2.1255E-03 -1.1880E-03  
        170   4         2.3630E+08  1.9417E+08 -1.9235E+07  2.5436E-03  1.7611E-03 -7.1445E-04  
        171   1        -2.0552E+08  1.5519E+08  1.5032E+08 -3.6011E-03  3.0978E-03  5.5832E-03  
        171   2        -2.1886E+08  1.3675E+08  1.5850E+08 -3.7127E-03  2.8915E-03  5.8873E-03  
        171   3         4.1109E+07  1.6707E+08  3.0872E+07 -1.2874E-04  2.2106E-03  1.1467E-03  
        171   4         2.8994E+07  1.5129E+08  3.8212E+07 -2.3419E-04  2.0370E-03  1.4193E-03  
        172   1        -9.5366E+07  1.5284E+08  3.9510E+07 -2.0174E-03  2.5921E-03  1.4675E-03  
        172   2        -1.0281E+08  1.3980E+08  4.4851E+07 -2.0679E-03  2.4377E-03  1.6659E-03  
        172   3        -3.5748E+07  1.2221E+08 -2.9629E+07 -1.0345E-03  1.8991E-03 -1.1005E-03  
        172   4        -4.2211E+07  1.1115E+08 -2.4944E+07 -1.0794E-03  1.7688E-03 -9.2649E-04  
        173   1        -2.6679E+07  1.1872E+08 -6.6112E+07 -8.8994E-04  1.8103E-03 -2.4556E-03  
        173   2        -2.1986E+07  1.1920E+08 -6.7472E+07 -8.2492E-04  1.7970E-03 -2.5061E-03  
        173   3        -5.9998E+07  8.8304E+07 -1.0578E+08 -1.2356E-03  1.5186E-03 -3.9291E-03  
        173   4        -5.4420E+07  8.8928E+07 -1.0729E+08 -1.1585E-03  1.5036E-03 -3.9851E-03  
        174   1         1.8830E+07  3.5746E+07 -1.4429E+08  1.1581E-04  4.2995E-04 -5.3593E-03  
        174   2         3.0053E+07  4.3820E+07 -1.4933E+08  2.4153E-04  4.9720E-04 -5.5464E-03  
        174   3         2.0482E+07  1.9126E+08 -2.3227E+08 -5.2707E-04  2.6444E-03 -8.6270E-03  
        174   4         3.3619E+07  2.0018E+08 -2.3787E+08 -3.7764E-04  2.7156E-03 -8.8350E-03  
        175   1         7.2918E+07 -2.2856E+08 -8.4715E+07  2.0212E-03 -3.5776E-03 -3.1466E-03  
        175   2         1.0252E+08 -2.0939E+08 -9.6777E+07  2.3619E-03 -3.4306E-03 -3.5946E-03  
        175   3         1.5315E+08  3.4782E+08 -4.0084E+08  6.9726E-04  4.3125E-03 -1.4888E-02  
        175   4         1.8636E+08  3.6662E+08 -4.1291E+08  1.0910E-03  4.4388E-03 -1.5337E-02  
        176   1         1.8157E+08 -4.4164E+08  1.9635E+08  4.4866E-03 -7.0872E-03  7.2930E-03  
        176   2         2.3490E+08 -4.2203E+08  1.8600E+08  5.1643E-03 -7.0357E-03  6.9085E-03  
        176   3         2.4658E+08  3.1706E+06 -5.4837E+08  3.5090E-03 -1.0115E-03 -2.0368E-02  
[...]
        71      -5.8120E-02   1.188       0.000       0.000     
        72        0.000       1.282      1.3071E+08   0.000     
        73       -1.162       0.000       0.000     -1.5683E+08 
        74       -1.077      7.1854E-02   0.000       0.000     
        75      -0.8769      0.1643       0.000       0.000     
        76      -0.6306      0.2855       0.000       0.000     
        77      -0.3826      0.4387       0.000       0.000     
        78      -0.2402      0.7007       0.000       0.000     
        79      -0.1309      0.9666       0.000       0.000     
        80      -5.3391E-02   1.187       0.000       0.000     
        81        0.000       1.283      1.1993E+08   0.000     
        82       -1.163       0.000       0.000     -1.4686E+08 
        83       -1.075      6.7553E-02   0.000       0.000     
        84      -0.8706      0.1557       0.000       0.000     
        85      -0.6186      0.2724       0.000       0.000     
        86      -0.3649      0.4208       0.000       0.000     
        87      -0.2268      0.6881       0.000       0.000     
        88      -0.1218      0.9597       0.000       0.000     
        89      -4.8640E-02   1.185       0.000       0.000     
        90        0.000       1.284      1.0935E+08   0.000     
        91       -1.164       0.000       0.000     -1.3706E+08 
        92       -1.074      6.3225E-02   0.000       0.000     
        93      -0.8643      0.1472       0.000       0.000     
        94      -0.6066      0.2594       0.000       0.000     
        95      -0.3472      0.4029       0.000       0.000     
        96      -0.2135      0.6756       0.000       0.000     
        97      -0.1127      0.9528       0.000       0.000     
        98      -4.3862E-02   1.183       0.000       0.000     
        99        0.000       1.284      9.8956E+07   0.000     
       100       -1.165       0.000       0.000     -1.2741E+08 
       101       -1.072      5.8868E-02   0.000       0.000     
       102      -0.8579      0.1386       0.000       0.000     
       103      -0.5946      0.2464       0.000       0.000     
       104      -0.3295      0.3851       0.000       0.000     
       105      -0.2002      0.6630       0.000       0.000     
       106      -0.1035      0.9458       0.000       0.000     
       107      -3.9054E-02   1.182       0.000       0.000     
       108        0.000       1.285      8.8723E+07   0.000     
       109       -1.166       0.000       0.000     -1.1792E+08 
       110       -1.071      5.4477E-02   0.000       0.000     
       111      -0.8514      0.1300       0.000       0.000     
       112      -0.5825      0.2335       0.000       0.000     
       113      -0.3118      0.3673       0.000       0.000     
       114      -0.1869      0.6504       0.000       0.000     
       115      -9.4408E-02  0.9388       0.000       0.000     
       116      -3.4209E-02   1.180       0.000       0.000     
       117        0.000       1.286      7.8640E+07   0.000     
       118       -1.166       0.000       0.000     -1.0856E+08 
       119       -1.069      5.0049E-02   0.000       0.000     
       120      -0.8449      0.1214       0.000       0.000     
       121      -0.5704      0.2205       0.000       0.000     
       122      -0.2941      0.3494       0.000       0.000     
       123      -0.1737      0.6378       0.000       0.000     
       124      -8.5251E-02  0.9317       0.000       0.000     
       125      -2.9324E-02   1.178       0.000       0.000     
       126        0.000       1.286      6.8693E+07   0.000     
       127       -1.167       0.000       0.000     -9.9315E+07 
       128       -1.068      4.5581E-02   0.000       0.000     
       129      -0.8383      0.1128       0.000       0.000     
       130      -0.5583      0.2076       0.000       0.000     
       131      -0.2763      0.3316       0.000       0.000     
       132      -0.1604      0.6252       0.000       0.000     
       133      -7.6061E-02  0.9245       0.000       0.000     
       134      -2.4395E-02   1.176       0.000       0.000     
       135        0.000       1.287      5.8870E+07   0.000     
       136       -1.167       0.000       0.000     -9.0185E+07 
       137       -1.066      4.1067E-02   0.000       0.000     
       138      -0.8316      0.1041       0.000       0.000     
       139      -0.5461      0.1946       0.000       0.000     
       140      -0.2584      0.3137       0.000       0.000     
       141      -0.1471      0.6126       0.000       0.000     
       142      -6.6831E-02  0.9173       0.000       0.000     
       143      -1.9416E-02   1.174       0.000       0.000     
       144        0.000       1.287      4.9156E+07   0.000     
       145       -1.168       0.000       0.000     -8.1154E+07 
       146       -1.064      3.6506E-02   0.000       0.000     
       147      -0.8249      9.5396E-02   0.000       0.000     
       148      -0.5339      0.1816       0.000       0.000     
       149      -0.2405      0.2957       0.000       0.000     
       150      -0.1337      0.5999       0.000       0.000     
       151      -5.7555E-02  0.9100       0.000       0.000     
       152      -1.4384E-02   1.172       0.000       0.000     
       153        0.000       1.288      3.9541E+07   0.000     
       154       -1.168       0.000       0.000     -7.2212E+07 
       155       -1.063      3.1894E-02   0.000       0.000     
       156      -0.8181      8.6631E-02   0.000       0.000     
       157      -0.5216      0.1686       0.000       0.000     
       158      -0.2225      0.2777       0.000       0.000     
       159      -0.1203      0.5873       0.000       0.000     
       160      -4.8224E-02  0.9027       0.000       0.000     
       161      -9.2946E-03   1.170       0.000       0.000     
       162        0.000       1.288      3.0013E+07   0.000     
       163       -1.169       0.000       0.000     -6.3349E+07 
       164       -1.061      2.7226E-02   0.000       0.000     
       165      -0.8113      7.7813E-02   0.000       0.000     
       166      -0.5093      0.1555       0.000       0.000     
       167      -0.2045      0.2596       0.000       0.000     
       168      -0.1069      0.5746       0.000       0.000     
       169      -3.8832E-02  0.8953       0.000       0.000     
       170      -4.1425E-03   1.168       0.000       0.000     
       171        0.000       1.288      2.0561E+07   0.000     
       172       -1.169       0.000       0.000     -5.4557E+07 
       173       -1.059      2.2500E-02   0.000       0.000     
       174      -0.8044      6.8934E-02   0.000       0.000     
       175      -0.4970      0.1424       0.000       0.000     
       176      -0.1863      0.2415       0.000       0.000     
       177      -9.3393E-02  0.5618       0.000       0.000     
       178      -2.9373E-02  0.8879       0.000       0.000     
       179       1.0762E-03   1.166       0.000       0.000     
       180        0.000       1.289      1.1173E+07   0.000     
       181       -1.170       0.000       0.000     -4.6292E+07 
       182       -1.057      1.7712E-02   0.000       0.000     
       183      -0.7974      5.9990E-02   0.000       0.000     
       184      -0.4845      0.1292       0.000       0.000     
       185      -0.1681      0.2233       0.000       0.000     
       186      -7.9823E-02  0.5490       0.000       0.000     
       187      -1.9841E-02  0.8805       0.000       0.000     
       188       6.3659E-03   1.163       0.000       0.000     
       189        0.000       1.289      2.7817E+06   0.000     
       190       -1.170       0.000       0.000     -3.7108E+07 
       191       -1.055      1.2860E-02   0.000       0.000     
       192      -0.7904      5.0965E-02   0.000       0.000     
       193      -0.4721      0.1159       0.000       0.000     
       194      -0.1499      0.2048       0.000       0.000     
       195      -6.6260E-02  0.5360       0.000       0.000     
       196      -1.0252E-02  0.8728       0.000       0.000     
       197       1.1719E-02   1.161       0.000       0.000     
       198        0.000       1.289     -4.2939E+06   0.000     
       199       -1.171       0.000       0.000     -2.8559E+07 
       200       -1.053      7.9397E-03   0.000       0.000     
       201      -0.7833      4.1867E-02   0.000       0.000     
       202      -0.4595      0.1026       0.000       0.000     
       203      -0.1315      0.1863       0.000       0.000     
       204      -5.2623E-02  0.5229       0.000       0.000     
       205      -5.7890E-04  0.8650       0.000       0.000     
       206       1.7151E-02   1.158       0.000       0.000     
       207        0.000       1.289     -1.3513E+07   0.000     
       208       -1.171       0.000       0.000     -2.0018E+07 
       209       -1.051      2.9462E-03   0.000       0.000     
       210      -0.7762      3.2691E-02   0.000       0.000     
       211      -0.4470      8.9267E-02   0.000       0.000     
       212      -0.1131      0.1677       0.000       0.000     
       213      -3.8909E-02  0.5097       0.000       0.000     
       214       9.1849E-03  0.8572       0.000       0.000     
       215       2.2667E-02   1.156       0.000       0.000     
       216        0.000       1.289     -2.2715E+07   0.000     
       217       -1.171       0.000       0.000     -1.1487E+07 
       218       -1.049     -2.1236E-03   0.000       0.000     
       219      -0.7690      2.3430E-02   0.000       0.000     
       220      -0.4343      7.5810E-02   0.000       0.000     
       221      -9.4698E-02  0.1491       0.000       0.000     
       222      -2.5119E-02  0.4965       0.000       0.000     
       223       1.9044E-02  0.8494       0.000       0.000     
       224       2.8272E-02   1.153       0.000       0.000     
       225        0.000       1.290     -3.1903E+07   0.000     
       226       -1.171       0.000       0.000     -2.9674E+06 
       227       -1.046     -7.2733E-03   0.000       0.000     
       228      -0.7618      1.4082E-02   0.000       0.000     
       229      -0.4216      6.2273E-02   0.000       0.000     
       230      -7.6197E-02  0.1305       0.000       0.000     
       231      -1.1250E-02  0.4833       0.000       0.000     
       232       2.9002E-02  0.8415       0.000       0.000     
       233       3.3969E-02   1.151       0.000       0.000     
       234        0.000       1.290     -4.1081E+07   0.000     
       235       -1.172       0.000       0.000      5.5430E+06 
       236       -1.044     -1.2506E-02   0.000       0.000     
       237      -0.7545      4.6405E-03   0.000       0.000     
       238      -0.4089      4.8656E-02   0.000       0.000     
       239      -5.7643E-02  0.1118       0.000       0.000     
       240       2.6974E-03  0.4701       0.000       0.000     
       241       3.9064E-02  0.8335       0.000       0.000     
       242       3.9763E-02   1.148       0.000       0.000     
       243        0.000       1.290     -5.0255E+07   0.000     
       244       -1.172       0.000       0.000      1.4048E+07 
       245       -1.042     -1.7827E-02   0.000       0.000     
       246      -0.7471     -4.8965E-03   0.000       0.000     
       247      -0.3961      3.4959E-02   0.000       0.000     
       248      -3.9040E-02  9.3106E-02   0.000       0.000     
       249       1.6723E-02  0.4568       0.000       0.000     
       250       4.9233E-02  0.8255       0.000       0.000     
       251       4.5661E-02   1.145       0.000       0.000     
       252        0.000       1.290     -5.9433E+07   0.000     
       253       -1.172       0.000       0.000      2.2552E+07 
       254       -1.040     -2.3238E-02   0.000       0.000     
       255      -0.7397     -1.4533E-02   0.000       0.000     
       256      -0.3833      2.1183E-02   0.000       0.000     
       257      -2.0394E-02  7.4377E-02   0.000       0.000     
       258       3.0825E-02  0.4436       0.000       0.000     
       259       5.9512E-02  0.8175       0.000       0.000     
       260       5.1665E-02   1.143       0.000       0.000     
       261        0.000       1.290     -6.8622E+07   0.000     
       262       -1.172       0.000       0.000      3.1061E+07 
       263       -1.037     -2.8745E-02   0.000       0.000     
       264      -0.7323     -2.4271E-02   0.000       0.000     
       265      -0.3704      7.3295E-03   0.000       0.000     
       266      -1.7081E-03  5.5622E-02   0.000       0.000     
       267       4.5002E-02  0.4303       0.000       0.000     
       268       6.9905E-02  0.8094       0.000       0.000     
       269       5.7781E-02   1.140       0.000       0.000     
       270        0.000       1.289     -7.7830E+07   0.000     
       271       -1.172       0.000       0.000      3.9581E+07 
       272       -1.035     -3.4351E-02   0.000       0.000     
       273      -0.7248     -3.4113E-02   0.000       0.000     
       274      -0.3575     -6.5999E-03   0.000       0.000     
       275       1.7012E-02  3.6843E-02   0.000       0.000     
       276       5.9253E-02  0.4169       0.000       0.000     
       277       8.0413E-02  0.8013       0.000       0.000     
       278       6.4015E-02   1.137       0.000       0.000     
       279        0.000       1.289     -8.7066E+07   0.000     
       280       -1.172       0.000       0.000      4.8118E+07 
       281       -1.032     -4.0060E-02   0.000       0.000     
       282      -0.7172     -4.4062E-02   0.000       0.000     
       283      -0.3446     -2.0603E-02   0.000       0.000     
       284       3.5761E-02  1.8045E-02   0.000       0.000     
       285       7.3574E-02  0.4036       0.000       0.000     
       286       9.1039E-02  0.7931       0.000       0.000     
       287       7.0371E-02   1.134       0.000       0.000     
       288        0.000       1.289     -9.6338E+07   0.000     
       289       -1.172       0.000       0.000      5.6679E+07 
       290       -1.030     -4.5877E-02   0.000       0.000     
       291      -0.7096     -5.4120E-02   0.000       0.000     
       292      -0.3316     -3.4677E-02   0.000       0.000     
       293       5.4535E-02 -7.6879E-04   0.000       0.000     
       294       8.7961E-02  0.3902       0.000       0.000     
       295       0.1018      0.7849       0.000       0.000     
       296       7.6854E-02   1.131       0.000       0.000     
       297        0.000       1.289     -1.0565E+08   0.000     
       298       -1.172       0.000       0.000      6.5270E+07 
       299       -1.027     -5.1805E-02   0.000       0.000     
       300      -0.7019     -6.4287E-02   0.000       0.000     
       301      -0.3186     -4.8819E-02   0.000       0.000     
       302       7.3327E-02 -1.9596E-02   0.000       0.000     
       303       0.1024      0.3769       0.000       0.000     
       304       0.1127      0.7766       0.000       0.000     
       305       8.3470E-02   1.128       0.000       0.000     
       306        0.000       1.289     -1.1502E+08   0.000     
       307       -1.172       0.000       0.000      7.3900E+07 
       308       -1.025     -5.7849E-02   0.000       0.000     
       309      -0.6942     -7.4566E-02   0.000       0.000     
       310      -0.3055     -6.3025E-02   0.000       0.000     
       311       9.2135E-02 -3.8431E-02   0.000       0.000     
       312       0.1169      0.3635       0.000       0.000     
       313       0.1236      0.7683       0.000       0.000     
       314       9.0223E-02   1.125       0.000       0.000     
       315        0.000       1.289     -1.2446E+08   0.000     
       316       -1.172       0.000       0.000      8.2574E+07 
       317       -1.022     -6.4014E-02   0.000       0.000     
       318      -0.6865     -8.4957E-02   0.000       0.000     
       319      -0.2925     -7.7291E-02   0.000       0.000     
       320       0.1110     -5.7274E-02   0.000       0.000     
       321       0.1315      0.3501       0.000       0.000     
       322       0.1348      0.7600       0.000       0.000     
       323       9.7121E-02   1.122       0.000       0.000     
       324        0.000       1.288     -1.3396E+08   0.000     
       325       -1.172       0.000       0.000      9.1300E+07 
       326       -1.020     -7.0304E-02   0.000       0.000     
       327      -0.6787     -9.5460E-02   0.000       0.000     
       328      -0.2794     -9.1613E-02   0.000       0.000     
       329       0.1298     -7.6119E-02   0.000       0.000     
       330       0.1461      0.3367       0.000       0.000     
       331       0.1460      0.7517       0.000       0.000     
       332       0.1042       1.119       0.000       0.000     
       333        0.000       1.288     -1.4354E+08   0.000     
       334       -1.172       0.000       0.000      1.0009E+08 
       335       -1.017     -7.6724E-02   0.000       0.000     
       336      -0.6709     -0.1061       0.000       0.000     
       337      -0.2663     -0.1060       0.000       0.000     
       338       0.1486     -9.4966E-02   0.000       0.000     
       339       0.1607      0.3233       0.000       0.000     
       340       0.1573      0.7433       0.000       0.000     
       341       0.1114       1.116       0.000       0.000     
       342        0.000       1.288     -1.5321E+08   0.000     
       343       -1.172       0.000       0.000      1.0894E+08 
       344       -1.014     -8.3279E-02   0.000       0.000     
       345      -0.6630     -0.1168       0.000       0.000     
       346      -0.2532     -0.1204       0.000       0.000     
       347       0.1674     -0.1138       0.000       0.000     
       348       0.1754      0.3099       0.000       0.000     
       349       0.1688      0.7349       0.000       0.000     
       350       0.1187       1.113       0.000       0.000     
       351        0.000       1.287     -1.6297E+08   0.000     
       352       -1.172       0.000       0.000      1.1786E+08 
       353       -1.011     -8.9972E-02   0.000       0.000     
       354      -0.6551     -0.1276       0.000       0.000     
       355      -0.2400     -0.1349       0.000       0.000     
       356       0.1863     -0.1327       0.000       0.000     
       357       0.1901      0.2965       0.000       0.000     
       358       0.1804      0.7264       0.000       0.000     
       359       0.1263       1.110       0.000       0.000     
       360        0.000       1.287     -1.7285E+08   0.000     
       361       -1.171       0.000       0.000      9.5633E+08 
       362       -1.009     -9.6811E-02   0.000       0.000     
       363      -0.6472     -0.1386       0.000       0.000     
       364      -0.2269     -0.1494       0.000       0.000     
       365       0.2051     -0.1515       0.000       0.000     
       366       0.2048      0.2832       0.000       0.000     
       367       0.1922      0.7180       0.000       0.000     
       368       0.1340       1.107       0.000       0.000     
       369        0.000       1.287     -1.0989E+09   0.000     

 MAXIMUM         0.2051       1.290      5.9851E+08  9.5633E+08
 AT NODE               365         243           9         361

 MINIMUM         -1.172     -0.1515     -1.0989E+09 -5.8288E+08
 AT NODE               298         365         369           1


          THE ANALYSIS HAS BEEN COMPLETED



                              ANALYSIS COMPLETE



     JOB TIME SUMMARY
       USER TIME (SEC)      =  0.30000    
       SYSTEM TIME (SEC)    =  0.10000    
       TOTAL CPU TIME (SEC) =  0.40000    
       WALLCLOCK TIME (SEC) =          0
