1

  ABAQUS VERSION 6.4-1                                     DATE 07-Apr-2008   TIME 17:24:42        PAGE     1
 





    AAAAAA     BBBBBBBBB      AAAAAA      QQQQQQQQ    U        U    SSSSSSSS
   A      A    B        B    A      A    Q        Q   U        U   S
  A        A   B        B   A        A   Q        Q   U        U   S
  A        A   B        B   A        A   Q        Q   U        U   S
  AAAAAAAAAA   BBBBBBBBB    AAAAAAAAAA   Q        Q   U        U    SSSSSSSS
  A        A   B        B   A        A   Q    Q   Q   U        U            S
  A        A   B        B   A        A   Q     Q  Q   U        U            S
  A        A   B        B   A        A   Q      Q Q   U        U            S
  A        A   BBBBBBBBB    A        A    QQQQQQQQ     UUUUUUUU     SSSSSSSS
 



                      This program has been developed by
 
                                  ABAQUS, Inc.
                                1080 Main Street
                             Pawtucket, R.I. 02860
 


                   Available for internal use at University of Virginia. 
                   Support of your usage is not included in the license
                   price.  To purchase support, or send information to ABAQUS, Inc.
                   about a suspected error, please follow the procedures
                   described in the ABAQUS academic support instructions
                   document. A copy of this document has been sent to the
                   designated user at your site. Additional copies can be
                   obtained by contacting ABAQUS, Inc. or your local ABAQUS
                   representative.

                   Should you have any questions concerning the terms of
                   this academic license, please contact the designated
                   user at your university, Brad Sayler
 
                        On machine d107-14 
                        you are authorized to run
                        ABAQUS/Standard until 31-Dec-2008

                        Your site id is: 08UVA_X 


 
                    For assistance or any other information contact

                           ABAQUS, INC.
                           1080 Main Street
                           Pawtucket, RI 02860-4847
                           U.S.A.
                           Tel: (1) 401 727 4200
                           Fax: (1) 401 727 4208
                           E-mail: info@abaqus.com
                           Web: http://www.abaqus.com
                           Technical support: support@abaqus.com 


                * * * * * * * * * * * * * * * * * * * * * * * * * * * * * * 
                *                                                         * 
                *                   *****************                     * 
                *                   *  N O T I C E  *                     * 
                *                   *****************                     * 
                *                                                         * 
                *                                                         * 
                *                 ABAQUS VERSION 6.4-1                    * 
                *                                                         * 
                *          BUILD ID: 2003_09_29-11.18.28 46457            * 
                *                                                         * 
                *                                                         * 
                *  Please make sure you are using version 6.4 manuals     * 
                *  plus the notes accompanying this release.              * 
                *                                                         * 
                *                                                         * 
                *   This program may not be used for commercial purposes  * 
                *           without payment of a monthly charge.          * 
                *                                                         * 
                * * * * * * * * * * * * * * * * * * * * * * * * * * * * * * 


 



     PROCESSING PART, INSTANCE, AND ASSEMBLY INFORMATION
   *******************************************************


     END PROCESSING PART, INSTANCE, AND ASSEMBLY INFORMATION
   ***********************************************************




     OPTIONS BEING PROCESSED
   ***************************


  *Heading
          2-D plate with hole: 4-noded elements                                                                                                                                                                                                                           
  *NODE
  *NODE,NSET=N1
  *NODE,NSET=N2
  *NODE,NSET=N3
  *NODE,NSET=N4
  *NODE,NSET=N5
  *NGEN,NSET=ARC1,LINE=C
  *NGEN,NSET=ROW1
  *NGEN,NSET=ROW1
  *NFILL,NSET=ALL, BIAS= 1.000
  *ELEMENT, ELSET=ALL, TYPE=CPS4
  *ELGEN, ELSET=ALL
  *ELSET,ELSET=TOP,GENERATE
  *NSET, NSET=YAXIS,GENERATE
  *NSET, NSET=XAXIS,GENERATE
  *MATERIAL,NAME=ALUM
  *ELASTIC
  *SOLID SECTION, ELSET=ALL, MAT=ALUM
  *BOUNDARY
  *SOLID SECTION, ELSET=ALL, MAT=ALUM
  *STEP
  *STEP
  *STEP
  *STATIC
  *BOUNDARY
  *DLOAD
  *EL PRINT
  *END STEP
  *STEP
  *STATIC
  *BOUNDARY
  *NODE PRINT
  *END STEP
1

   ABAQUS VERSION 6.4-1                                 DATE 07-Apr-2008       TIME 17:24:42        PAGE    2
   For use at None under academic license from ABAQUS, Inc.                                                                        

     2-D plate with hole: 4-noded elements                                           



                            P R O B L E M   S I Z E


          NUMBER OF ELEMENTS IS                                   480
          NUMBER OF NODES IS                                      549
          NUMBER OF NODES DEFINED BY THE USER                     549
          TOTAL NUMBER OF VARIABLES IN THE MODEL                 1098
          (DEGREES OF FREEDOM PLUS ANY LAGRANGE MULTIPLIER VARIABLES)



                              END OF USER INPUT PROCESSING



     JOB TIME SUMMARY
       USER TIME (SEC)      =  0.50000    
       SYSTEM TIME (SEC)    =  0.10000    
       TOTAL CPU TIME (SEC) =  0.60000    
       WALLCLOCK TIME (SEC) =          1
1

   ABAQUS VERSION 6.4-1                                     DATE 07-Apr-2008   TIME 17:24:43        PAGE    1
   For use at None under academic license from ABAQUS, Inc.                                                                        

     2-D plate with hole: 4-noded elements                                                     STEP    1  INCREMENT    1
                                                                                          TIME COMPLETED IN THIS STEP   0.00    


                        S T E P       1     S T A T I C   A N A L Y S I S


                                                                                          

     AUTOMATIC TIME CONTROL WITH -
          A SUGGESTED INITIAL TIME INCREMENT OF                 1.00    
          AND A TOTAL TIME PERIOD OF                            1.00    
          THE MINIMUM TIME INCREMENT ALLOWED IS                1.000E-06
          THE MAXIMUM TIME INCREMENT ALLOWED IS                 1.00    

     LINEAR EQUATION SOLVER TYPE         DIRECT SPARSE
  
  
  
                   M E M O R Y   A N D   D I S K   E S T I M A T E
  
  
           SUMMARY FOR CURRENT NODE ORDERING
          (NOTE THAT IF NODE ORDERING CHANGES THE SIZE ESTIMATES FOR THE STEPS WILL CHANGE)
  
  
           STEP   MAXIMUM DOF     FLOATING PT    MINIMUM MEMORY      MEMORY TO      REQUIRED DISKSPACE
                  WAVEFRONT       OPERATIONS       REQUIRED        MINIMIZE I/O
                                PER ITERATION     (MBYTES)           (MBYTES)          (KBYTES)
  
             1          56        9.43E+005         14.77              14.77            422.52
          ----    ---------      ------------    -------------     -------------      -------------
           MAX          56        9.43E+005         14.77              14.77            422.52
  
  
          THE TABLE ABOVE PROVIDES A STEP BY STEP SUMMARY OF SOME BASIC SIZING INFORMATION
          FOR THE PROBLEM. SOME FURTHER DESCRIPTION OF THE PARAMETERS GIVEN FOLLOWS:
  
          (1) MAXIMUM DOF WAVEFRONT - SIZE OF THE BIGGEST FRONT IN THE EQUATION SOLVER.
              PROVIDES A BASIC SIZING OF THE MOST MEMORY INTENSIVE SEGMENT OF SOLVER.
          (2) FLOATING POINT OPERATIONS PER ITERATION - MEASURE OF THE NUMBER OF FLOATING
              POINT OPERATIONS REQUIRED FOR A SINGLE SOLVER PASS. ON A GIVEN PLATFORM
              THE TIME REQUIRED FOR A SOLVER PASS WILL BE ROUGHLY A LINEAR FUNCTION
              OF THIS VALUE.
              NOTE - EXCEPT FOR THE FIRST STEP, THE VALUE IN THIS TABLE DOES NOT INCLUDE
                     ADDITIONAL FLOATING POINT OPERATIONS THAT ARE REQUIRED IN MULTIPLE LOAD
                     CASE STEPS WHEN CONSTRAINTS CHANGE FROM LOAD CASE TO LOAD CASE.  THIS
                     SITUATION CAUSES A REORDERING TO BE PERFORMED, AT WHICH TIME AN UPPER
                     BOUND ON THE NUMBER OF ADDITIONAL FLOATING POINT OPERATIONS WILL BE
                     CALCULATED AND INCLUDED UNDER THE ESTIMATE SUMMARIES FOR THE RELEVANT
                     STEPS (SEE NOTE BELOW ON REORDERING).
          (3) MINIMUM MEMORY REQUIRED - MINIMUM POSSIBLE MEMORY VALUE FOR standard_memory
              THAT ENABLES ABAQUS TO SOLVE THE PROBLEM. USE OF MEMORY WILL BE MINIMIZED BY
              WRITING AS MUCH INFORMATION AS POSSIBLE TO DISK WHICH WILL INCREASE I/O TIME.
          (4) MEMORY TO MINIMIZE I/O - VALUE OF standard_memory THAT ALLOWS ABAQUS TO KEEP
              ALL SIGNIFICANT SCRATCH FILES IN MEMORY. THIS WILL MINIMIZE I/O TIME FOR THE USER
              WITH ACCESS TO A LARGE AMOUNT OF MEMORY.
          (5) REQUIRED DISKSPACE - AMOUNT OF DISK REQUIRED FOR SCRATCH FILES. THESE WILL BE
              DELETED AT THE END OF THE ANALYSIS.
  
  
           NOTE - WHENEVER POSSIBLE THE USER SHOULD SET standard_memory TO BE LESS THAN THE
          PHYSICAL MEMORY ON THE MACHINE. UNLESS NECESSARY USERS SHOULD NOT MAKE USE
          OF VIRTUAL MEMORY EVEN IN AN ATTEMPT TO KEEP SCRATCH FILES IN MEMORY.
  
           NOTE - IF A REORDERING IS PERFORMED (THIS WILL GENERALLY BE DONE ONLY FOR 3D-3D
          LARGE SLIDING PROBLEMS), THE SIZE ESTIMATES DONE AT THIS TIME WILL NO LONGER BE VALID.
          THE ESTIMATES WILL BE REDONE IN THE EVENT OF A REORDERING AND A NEW SUMMARY WILL BE
          BE PRINTED FOR THE REMAINING STEPS.
  
  
  
           S I Z E   E S T I M A T E S   F O R   C U R R E N T   S T E P
  
          NUMBER OF EQUATIONS                        1098
          MAX DOF WAVEFRONT                          56
          FLOATING POINT OPS PER SOLVER ITERATION   9.43E+005
          MEMORY USED FOR STEP                      14.86 MBYTES
  
  
           ESTIMATED FILE SIZES
  
           FILE           KWORDS           KBYTES
  
          .fct            29.123          227.523
          .nck             3.840           30.000
          .opr            21.120          165.000
          -------        -------          -------
           TOTAL          54.083          422.523
  


                                INCREMENT     1 SUMMARY


 TIME INCREMENT COMPLETED   1.00    ,  FRACTION OF STEP COMPLETED   1.00    
 STEP TIME COMPLETED        1.00    ,  TOTAL TIME COMPLETED         1.00    



                                                  E L E M E N T   O U T P U T





   THE FOLLOWING TABLE IS PRINTED FOR ALL ELEMENTS WITH TYPE CPS4 AT THE INTEGRATION POINTS

    ELEMENT  PT FOOT-       S11         S22         S12         E11         E22         E12     
                NOTE 

          1   1        -7.8263E+07  2.3990E+09  2.4688E+08 -1.1399E-02  3.4607E-02  9.1697E-03  
          1   2        -9.5725E+07  2.3440E+09  2.5253E+08 -1.1413E-02  3.3896E-02  9.3796E-03  
          1   3         3.2124E+08  2.3072E+09 -5.6832E+08 -5.2988E-03  3.1583E-02 -2.1109E-02  
          1   4         3.0280E+08  2.2562E+09 -5.5876E+08 -5.3436E-03  3.0933E-02 -2.0754E-02  
          2   1        -2.1913E+08  1.7427E+09 -2.5004E+08 -1.0599E-02  2.5836E-02 -9.2873E-03  
          2   2        -2.4254E+08  1.7001E+09 -2.3505E+08 -1.0751E-02  2.5327E-02 -8.7305E-03  
          2   3         4.4584E+08  1.5719E+09 -6.3934E+08 -3.6733E-04  2.0544E-02 -2.3747E-02  
          2   4         4.2338E+08  1.5360E+09 -6.2509E+08 -5.3436E-04  2.0128E-02 -2.3218E-02  
          3   1         2.1557E+04  9.7205E+08 -3.8137E+08 -4.1656E-03  1.3886E-02 -1.4165E-02  
          3   2        -2.2181E+07  9.4505E+08 -3.6832E+08 -4.3671E-03  1.3596E-02 -1.3680E-02  
          3   3         4.0720E+08  8.2165E+08 -4.8635E+08  2.2958E-03  9.9927E-03 -1.8064E-02  
          3   4         3.8774E+08  7.9939E+08 -4.7521E+08  2.1132E-03  9.7581E-03 -1.7651E-02  
          4   1         8.6153E+07  3.6526E+08 -2.5441E+08 -3.3465E-04  4.8488E-03 -9.4496E-03  
          4   2         7.3168E+07  3.5533E+08 -2.4813E+08 -4.7760E-04  4.7626E-03 -9.2162E-03  
          4   3         2.6150E+08  3.3286E+08 -2.3655E+08  2.3091E-03  3.6345E-03 -8.7861E-03  
          4   4         2.5033E+08  3.2455E+08 -2.3128E+08  2.1852E-03  3.5635E-03 -8.5905E-03  
          5   1        -4.8429E+07 -1.9612E+07 -2.1727E+07 -6.0780E-04 -7.2619E-05 -8.0701E-04  
          5   2        -4.6078E+07 -1.3706E+07 -2.3977E+07 -5.9952E-04  1.6789E-06 -8.9059E-04  
          5   3        -2.2752E+07  9.9070E+07  8.3632E+06 -7.4961E-04  1.5128E-03  3.1063E-04  
          5   4        -1.9999E+07  1.0590E+08  5.6417E+06 -7.3955E-04  1.5985E-03  2.0955E-04  
          6   1        -4.5724E+08 -2.7148E+08  2.6327E+08 -5.3686E-03 -1.9187E-03  9.7786E-03  
          6   2        -4.3895E+08 -2.5444E+08  2.5376E+08 -5.1802E-03 -1.7537E-03  9.4254E-03  
          6   3        -5.6301E+08  1.0557E+08  1.8827E+08 -8.4954E-03  3.9210E-03  6.9929E-03  
          6   4        -5.4085E+08  1.2496E+08  1.7710E+08 -8.2620E-03  4.1031E-03  6.5779E-03  
          7   1        -1.1719E+09 -4.1009E+08  4.9869E+08 -1.4984E-02 -8.3589E-04  1.8523E-02  
          7   2        -1.1372E+09 -3.8766E+08  4.8456E+08 -1.4584E-02 -6.6436E-04  1.7998E-02  
          7   3        -1.3206E+09  2.8089E+08  1.3001E+08 -2.0070E-02  9.6724E-03  4.8291E-03  
          7   4        -1.2794E+09  3.0416E+08  1.1508E+08 -1.9581E-02  9.8282E-03  4.2744E-03  
          8   1        -1.9123E+09 -3.3916E+08  5.3101E+08 -2.5865E-02  3.3505E-03  1.9723E-02  
          8   2        -1.8598E+09 -3.2006E+08  5.2104E+08 -2.5197E-02  3.3984E-03  1.9353E-02  
          8   3        -2.0010E+09  9.0794E+07 -3.0670E+08 -2.8975E-02  9.8729E-03 -1.1392E-02  
          8   4        -1.9444E+09  1.0880E+08 -3.1267E+08 -2.8244E-02  9.8875E-03 -1.1613E-02  
          9   1        -7.0423E+07  2.3157E+09  2.5852E+08 -1.0930E-02  3.3383E-02  9.6023E-03  
          9   2        -8.7523E+07  2.2618E+09  2.6408E+08 -1.0944E-02  3.2687E-02  9.8086E-03  
          9   3         3.2931E+08  2.2317E+09 -5.4831E+08 -4.8602E-03  3.0471E-02 -2.0366E-02  
          9   4         3.1122E+08  2.1817E+09 -5.3892E+08 -4.9044E-03  2.9834E-02 -2.0017E-02  
         10   1        -2.2438E+08  1.6834E+09 -2.1604E+08 -1.0420E-02  2.5010E-02 -8.0245E-03  
         10   2        -2.4723E+08  1.6418E+09 -2.0141E+08 -1.0568E-02  2.4514E-02 -7.4810E-03  
         10   3         4.3624E+08  1.5259E+09 -6.0257E+08 -3.0774E-04  1.9930E-02 -2.2381E-02  
         10   4         4.1427E+08  1.4908E+09 -5.8863E+08 -4.7118E-04  1.9522E-02 -2.1864E-02  
         11   1        -1.8571E+07  9.4725E+08 -3.4463E+08 -4.3249E-03  1.3612E-02 -1.2800E-02  
         11   2        -3.9945E+07  9.2114E+08 -3.3205E+08 -4.5184E-03  1.3330E-02 -1.2333E-02  
         11   3         3.7987E+08  8.0710E+08 -4.5114E+08  1.9678E-03  9.9020E-03 -1.6757E-02  
         11   4         3.6112E+08  7.8556E+08 -4.4038E+08  1.7922E-03  9.6746E-03 -1.6357E-02  
         12   1         5.9608E+07  3.7937E+08 -2.3223E+08 -7.7434E-04  5.1642E-03 -8.6258E-03  
         12   2         4.7965E+07  3.7011E+08 -2.2651E+08 -9.0097E-04  5.0817E-03 -8.4133E-03  
         12   3         2.1663E+08  3.4648E+08 -2.2079E+08  1.6099E-03  4.0212E-03 -8.2007E-03  
         12   4         2.0662E+08  3.3872E+08 -2.1598E+08  1.5000E-03  3.9533E-03 -8.0223E-03  
         13   1        -6.6126E+07  2.4115E+07 -2.8607E+07 -1.0480E-03  6.2790E-04 -1.0626E-03  
         13   2        -6.4104E+07  2.8997E+07 -3.0488E+07 -1.0400E-03  6.8897E-04 -1.1324E-03  
         13   3        -4.5858E+07  1.2299E+08 -5.1005E+06 -1.1822E-03  1.9535E-03 -1.8945E-04  
         13   4        -4.3488E+07  1.2863E+08 -7.3713E+06 -1.1725E-03  2.0239E-03 -2.7379E-04  
         14   1        -4.4750E+08 -2.3966E+08  2.3208E+08 -5.3657E-03 -1.5059E-03  8.6200E-03  
         14   2        -4.2983E+08 -2.2335E+08  2.2294E+08 -5.1833E-03 -1.3486E-03  8.2807E-03  
         14   3        -5.4624E+08  1.2544E+08  1.5486E+08 -8.3410E-03  4.1330E-03  5.7521E-03  
         14   4        -5.2488E+08  1.4398E+08  1.4415E+08 -8.1153E-03  4.3064E-03  5.3542E-03  
         15   1        -1.1276E+09 -3.9539E+08  4.6121E+08 -1.4414E-02 -8.1573E-04  1.7131E-02  
         15   2        -1.0937E+09 -3.7350E+08  4.4742E+08 -1.4023E-02 -6.4842E-04  1.6618E-02  
         15   3        -1.2638E+09  2.8841E+08  9.5347E+07 -1.9290E-02  9.5363E-03  3.5415E-03  
         15   4        -1.2236E+09  3.1106E+08  8.0804E+07 -1.8814E-02  9.6880E-03  3.0013E-03  
         16   1        -1.8341E+09 -3.4465E+08  5.0959E+08 -2.4724E-02  2.9367E-03  1.8928E-02  
         16   2        -1.7827E+09 -3.2593E+08  4.9981E+08 -2.4070E-02  2.9839E-03  1.8564E-02  
         16   3        -1.9148E+09  8.4782E+07 -3.1908E+08 -2.7718E-02  9.4174E-03 -1.1851E-02  
         16   4        -1.8594E+09  1.0240E+08 -3.2493E+08 -2.7002E-02  9.4318E-03 -1.2069E-02  
         17   1        -6.3245E+07  2.2339E+09  2.6979E+08 -1.0478E-02  3.2184E-02  1.0021E-02  
         17   2        -8.0001E+07  2.1812E+09  2.7525E+08 -1.0491E-02  3.1503E-02  1.0224E-02  
         17   3         3.3673E+08  2.1575E+09 -5.2915E+08 -4.4360E-03  2.9379E-02 -1.9654E-02  
         17   4         3.1897E+08  2.1085E+09 -5.1992E+08 -4.4796E-03  2.8754E-02 -1.9311E-02  
         18   1        -2.2956E+08  1.6249E+09 -1.8348E+08 -1.0244E-02  2.4197E-02 -6.8151E-03  
         18   2        -2.5188E+08  1.5843E+09 -1.6919E+08 -1.0388E-02  2.3713E-02 -6.2843E-03  
         18   3         4.2711E+08  1.4804E+09 -5.6734E+08 -2.4304E-04  1.9318E-02 -2.1073E-02  
         18   4         4.0561E+08  1.4461E+09 -5.5370E+08 -4.0309E-04  1.8920E-02 -2.0566E-02  
         19   1        -3.6056E+07  9.2226E+08 -3.0963E+08 -4.4676E-03  1.3330E-02 -1.1500E-02  
         19   2        -5.6624E+07  8.9702E+08 -2.9750E+08 -4.6533E-03  1.3057E-02 -1.1050E-02  
         19   3         3.5343E+08  7.9176E+08 -4.1750E+08  1.6558E-03  9.7961E-03 -1.5507E-02  
         19   4         3.3536E+08  7.7090E+08 -4.0711E+08  1.4871E-03  9.5755E-03 -1.5121E-02  
         20   1         3.5667E+07  3.9159E+08 -2.1150E+08 -1.1687E-03  5.4413E-03 -7.8556E-03  
         20   2         2.5191E+07  3.8286E+08 -2.0626E+08 -1.2810E-03  5.3615E-03 -7.6610E-03  
         20   3         1.7606E+08  3.5758E+08 -2.0593E+08  9.8262E-04  4.3537E-03 -7.6490E-03  
         20   4         1.6704E+08  3.5027E+08 -2.0153E+08  8.8515E-04  4.2880E-03 -7.4852E-03  
         21   1        -8.1246E+07  6.3461E+07 -3.4920E+07 -1.4326E-03  1.2548E-03 -1.2970E-03  
         21   2        -7.9463E+07  6.7459E+07 -3.6493E+07 -1.4243E-03  1.3043E-03 -1.3555E-03  
         21   3        -6.6649E+07  1.4428E+08 -1.7435E+07 -1.5705E-03  2.3468E-03 -6.4760E-04  
         21   4        -6.4556E+07  1.4890E+08 -1.9331E+07 -1.5603E-03  2.4037E-03 -7.1799E-04  
         22   1        -4.3678E+08 -2.0911E+08  2.0241E+08 -5.3436E-03 -1.1153E-03  7.5182E-03  
         22   2        -4.1974E+08 -1.9350E+08  1.9364E+08 -5.1670E-03 -9.6539E-04  7.1924E-03  
         22   3        -5.2896E+08  1.4402E+08  1.2321E+08 -8.1738E-03  4.3244E-03  4.5765E-03  
         22   4        -5.0837E+08  1.6174E+08  1.1295E+08 -7.9556E-03  4.4893E-03  4.1952E-03  
         23   1        -1.0836E+09 -3.8134E+08  4.2541E+08 -1.3846E-02 -8.0363E-04  1.5801E-02  
         23   2        -1.0505E+09 -3.5997E+08  4.1195E+08 -1.3464E-02 -6.4030E-04  1.5301E-02  
         23   3        -1.2078E+09  2.9579E+08  6.2266E+07 -1.8523E-02  9.4020E-03  2.3127E-03  
         23   4        -1.1687E+09  3.1787E+08  4.8095E+07 -1.8058E-02  9.5498E-03  1.7864E-03  
         24   1        -1.7571E+09 -3.4950E+08  4.8911E+08 -2.3604E-02  2.5376E-03  1.8167E-02  
         24   2        -1.7067E+09 -3.3113E+08  4.7950E+08 -2.2963E-02  2.5841E-03  1.7810E-02  
         24   3        -1.8302E+09  7.9458E+07 -3.3103E+08 -2.6486E-02  8.9789E-03 -1.2295E-02  
         24   4        -1.7760E+09  9.6712E+07 -3.3678E+08 -2.5786E-02  8.9930E-03 -1.2509E-02  
         25   1        -5.6700E+07  2.1537E+09  2.8070E+08 -1.0040E-02  3.1010E-02  1.0426E-02  
         25   2        -7.3129E+07  2.1020E+09  2.8607E+08 -1.0053E-02  3.0342E-02  1.0626E-02  
         25   3         3.4357E+08  2.0845E+09 -5.1079E+08 -4.0253E-03  2.8306E-02 -1.8972E-02  
         25   4         3.2613E+08  2.0364E+09 -5.0171E+08 -4.0683E-03  2.7693E-02 -1.8635E-02  
         26   1        -2.3470E+08  1.5674E+09 -1.5230E+08 -1.0070E-02  2.3397E-02 -5.6570E-03  
         26   2        -2.5651E+08  1.5278E+09 -1.3834E+08 -1.0212E-02  2.2924E-02 -5.1382E-03  
         26   3         4.1836E+08  1.4353E+09 -5.3359E+08 -1.7449E-04  1.8711E-02 -1.9819E-02  
         26   4         3.9731E+08  1.4017E+09 -5.2023E+08 -3.3133E-04  1.8321E-02 -1.9323E-02  
         27   1        -5.2463E+07  8.9715E+08 -2.7631E+08 -4.5944E-03  1.3041E-02 -1.0263E-02  
         27   2        -7.2253E+07  8.7274E+08 -2.6463E+08 -4.7725E-03  1.2777E-02 -9.8291E-03  
         27   3         3.2799E+08  7.7568E+08 -3.8541E+08  1.3612E-03  9.6755E-03 -1.4315E-02  
         27   4         3.1058E+08  7.5549E+08 -3.7538E+08  1.1990E-03  9.4616E-03 -1.3943E-02  
         28   1         1.4122E+07  4.0191E+08 -1.9208E+08 -1.5207E-03  5.6811E-03 -7.1345E-03  
         28   2         4.6588E+06  3.9361E+08 -1.8725E+08 -1.6204E-03  5.6031E-03 -6.9550E-03  
         28   3         1.3943E+08  3.6636E+08 -1.9192E+08  4.2177E-04  4.6361E-03 -7.1285E-03  
         28   4         1.3129E+08  3.5941E+08 -1.8785E+08  3.3520E-04  4.5718E-03 -6.9773E-03  
         29   1        -9.3986E+07  9.8765E+07 -4.0703E+07 -1.7659E-03  1.8137E-03 -1.5118E-03  
         29   2        -9.2370E+07  1.0200E+08 -4.2021E+07 -1.7567E-03  1.8530E-03 -1.5608E-03  
         29   3        -8.5161E+07  1.6315E+08 -2.8741E+07 -1.9158E-03  2.6956E-03 -1.0675E-03  
         29   4        -8.3257E+07  1.6688E+08 -3.0324E+07 -1.9046E-03  2.7409E-03 -1.1263E-03  
         30   1        -4.2520E+08 -1.7990E+08  1.7426E+08 -5.3033E-03 -7.4768E-04  6.4726E-03  
         30   2        -4.0875E+08 -1.6497E+08  1.6584E+08 -5.1322E-03 -6.0492E-04  6.1598E-03  
         30   3        -5.1126E+08  1.6134E+08  9.3280E+07 -7.9951E-03  4.4960E-03  3.4647E-03  
         30   4        -4.9140E+08  1.7827E+08  8.3443E+07 -7.7840E-03  4.6528E-03  3.0993E-03  
         31   1        -1.0400E+09 -3.6787E+08  3.9124E+08 -1.3280E-02 -7.9828E-04  1.4532E-02  
         31   2        -1.0076E+09 -3.4699E+08  3.7808E+08 -1.2907E-02 -6.3871E-04  1.4043E-02  
         31   3        -1.1527E+09  3.0305E+08  3.0706E+07 -1.7767E-02  9.2696E-03  1.1405E-03  
         31   4        -1.1146E+09  3.2458E+08  1.6888E+07 -1.7314E-02  9.4136E-03  6.2726E-04  
         32   1        -1.6814E+09 -3.5376E+08  4.6954E+08 -2.2504E-02  2.1522E-03  1.7440E-02  
         32   2        -1.6320E+09 -3.3573E+08  4.6010E+08 -2.1875E-02  2.1980E-03  1.7089E-02  
         32   3        -1.7472E+09  7.4791E+07 -3.4258E+08 -2.5280E-02  8.5564E-03 -1.2724E-02  
         32   4        -1.6941E+09  9.1697E+07 -3.4823E+08 -2.4594E-02  8.5703E-03 -1.2934E-02  
         33   1        -5.0761E+07  2.0748E+09  2.9126E+08 -9.6173E-03  2.9858E-02  1.0818E-02  
         33   2        -6.6877E+07  2.0241E+09  2.9654E+08 -9.6302E-03  2.9203E-02  1.1015E-02  
         33   3         3.4986E+08  2.0126E+09 -4.9321E+08 -3.6272E-03  2.7251E-02 -1.8319E-02  
         33   4         3.3272E+08  1.9653E+09 -4.8428E+08 -3.6696E-03  2.6650E-02 -1.7988E-02  
         34   1        -2.3978E+08  1.5108E+09 -1.2245E+08 -9.9001E-03  2.2610E-02 -4.5481E-03  
         34   2        -2.6110E+08  1.4720E+09 -1.0879E+08 -1.0039E-02  2.2148E-02 -4.0408E-03  
         34   3         4.0993E+08  1.3905E+09 -5.0125E+08 -1.0305E-04  1.8107E-02 -1.8618E-02  
         34   4         3.8930E+08  1.3576E+09 -4.8816E+08 -2.5683E-04  1.7726E-02 -1.8132E-02  
         35   1        -6.7824E+07  8.7196E+08 -2.4465E+08 -4.7059E-03  1.2747E-02 -9.0870E-03  
         35   2        -8.6867E+07  8.4835E+08 -2.3339E+08 -4.8767E-03  1.2492E-02 -8.6686E-03  
         35   3         3.0361E+08  7.5897E+08 -3.5484E+08  1.0846E-03  9.5412E-03 -1.3180E-02  
         35   4         2.8684E+08  7.3941E+08 -3.4516E+08  9.2882E-04  9.3336E-03 -1.2820E-02  
         36   1        -5.2162E+06  4.1037E+08 -1.7388E+08 -1.8332E-03  5.8848E-03 -6.4584E-03  
         36   2        -1.3799E+07  4.0241E+08 -1.6940E+08 -1.9218E-03  5.8079E-03 -6.2918E-03  
         36   3         1.0647E+08  3.7300E+08 -1.7870E+08 -7.7630E-05  4.8723E-03 -6.6374E-03  
         36   4         9.9079E+07  3.6634E+08 -1.7491E+08 -1.5462E-04  4.8088E-03 -6.4967E-03  
         37   1        -1.0453E+08  1.3032E+08 -4.5987E+07 -2.0519E-03  2.3098E-03 -1.7081E-03  
         37   2        -1.0302E+08  1.3291E+08 -4.7097E+07 -2.0413E-03  2.3402E-03 -1.7493E-03  
         37   3        -1.0145E+08  1.7978E+08 -3.9099E+07 -2.2198E-03  3.0030E-03 -1.4522E-03  
         37   4        -9.9665E+07  1.8276E+08 -4.0426E+07 -2.2070E-03  3.0380E-03 -1.5015E-03  
         38   1        -4.1283E+08 -1.5208E+08  1.4760E+08 -5.2458E-03 -4.0335E-04  5.4821E-03  
         38   2        -3.9695E+08 -1.3781E+08  1.3951E+08 -5.0801E-03 -2.6746E-04  5.1819E-03  
         38   3        -4.9319E+08  1.7745E+08  6.5013E+07 -7.8061E-03  4.6487E-03  2.4148E-03  
         38   4        -4.7404E+08  1.9363E+08  5.5587E+07 -7.6019E-03  4.7978E-03  2.0647E-03  
         39   1        -9.9666E+08 -3.5490E+08  3.5862E+08 -1.2717E-02 -7.9865E-04  1.3320E-02  
         39   2        -9.6500E+08 -3.3449E+08  3.4576E+08 -1.2352E-02 -6.4265E-04  1.2842E-02  
         39   3        -1.0985E+09  3.1018E+08  6.0490E+05 -1.7022E-02  9.1389E-03  2.2468E-05  
         39   4        -1.0612E+09  3.3119E+08 -1.2877E+07 -1.6580E-02  9.2794E-03 -4.7831E-04  
         40   1        -1.6069E+09 -3.5749E+08  4.5084E+08 -2.1423E-02  1.7796E-03  1.6746E-02  
         40   2        -1.5583E+09 -3.3977E+08  4.4156E+08 -2.0806E-02  1.8247E-03  1.6401E-02  
         40   3        -1.6657E+09  7.0747E+07 -3.5374E+08 -2.4098E-02  8.1492E-03 -1.3139E-02  
         40   4        -1.6136E+09  8.7325E+07 -3.5929E+08 -2.3426E-02  8.1629E-03 -1.3345E-02  
         41   1        -4.5396E+07  1.9973E+09  3.0148E+08 -9.2085E-03  2.8728E-02  1.1198E-02  
         41   2        -6.1215E+07  1.9476E+09  3.0669E+08 -9.2212E-03  2.8085E-02  1.1391E-02  
         41   3         3.5566E+08  1.9417E+09 -4.7638E+08 -3.2409E-03  2.6215E-02 -1.7694E-02  
         41   4         3.3880E+08  1.8953E+09 -4.6760E+08 -3.2827E-03  2.5624E-02 -1.7368E-02  
         42   1        -2.4481E+08  1.4550E+09 -9.3866E+07 -9.7328E-03  2.1834E-02 -3.4864E-03  
         42   2        -2.6567E+08  1.4171E+09 -8.0505E+07 -9.8685E-03  2.1383E-02 -2.9902E-03  
         42   3         4.0177E+08  1.3461E+09 -4.7027E+08 -2.9433E-05  1.7508E-02 -1.7467E-02  
         42   4         3.8154E+08  1.3139E+09 -4.5744E+08 -1.8031E-04  1.7134E-02 -1.6991E-02  
         43   1        -8.2176E+07  8.4673E+08 -2.1458E+08 -4.8028E-03  1.2448E-02 -7.9701E-03  
         43   2        -1.0050E+08  8.2388E+08 -2.0372E+08 -4.9667E-03  1.2200E-02 -7.5668E-03  
         43   3         2.8035E+08  7.4168E+08 -3.2576E+08  8.2638E-04  9.3940E-03 -1.2100E-02  
         43   4         2.6419E+08  7.2273E+08 -3.1640E+08  6.7676E-04  9.1924E-03 -1.1752E-02  
         44   1        -2.2516E+07  4.1701E+08 -1.5680E+08 -2.1088E-03  6.0538E-03 -5.8240E-03  
         44   2        -3.0337E+07  4.0932E+08 -1.5261E+08 -2.1876E-03  5.9774E-03 -5.6684E-03  
         44   3         7.6899E+07  3.7767E+08 -1.6622E+08 -5.2005E-04  5.0658E-03 -6.1739E-03  
         44   4         7.0168E+07  3.7124E+08 -1.6267E+08 -5.8863E-04  5.0027E-03 -6.0422E-03  
         45   1        -1.1306E+08  1.5840E+08 -5.0798E+07 -2.2941E-03  2.7475E-03 -1.8868E-03  
         45   2        -1.1161E+08  1.6043E+08 -5.1738E+07 -2.2819E-03  2.7701E-03 -1.9217E-03  
         45   3        -1.1560E+08  1.9434E+08 -4.8579E+07 -2.4843E-03  3.2717E-03 -1.8044E-03  
         45   4        -1.1387E+08  1.9668E+08 -4.9698E+07 -2.4696E-03  3.2977E-03 -1.8459E-03  
         46   1        -3.9977E+08 -1.2569E+08  1.2239E+08 -5.1722E-03 -8.2352E-05  4.5458E-03  
         46   2        -3.8442E+08 -1.1204E+08  1.1462E+08 -5.0116E-03  4.6979E-05  4.2574E-03  
         46   3        -4.7483E+08  1.9239E+08  3.8365E+07 -7.6078E-03  4.7835E-03  1.4250E-03  
         46   4        -4.5636E+08  2.0785E+08  2.9330E+07 -7.4102E-03  4.9251E-03  1.0894E-03  
         47   1        -9.5368E+08 -3.4238E+08  3.2750E+08 -1.2157E-02 -8.0396E-04  1.2164E-02  
         47   2        -9.2271E+08 -3.2241E+08  3.1492E+08 -1.1800E-02 -6.5137E-04  1.1697E-02  
         47   3        -1.0450E+09  3.1719E+08 -2.8093E+07 -1.6288E-02  9.0098E-03 -1.0434E-03  
         47   4        -1.0087E+09  3.3770E+08 -4.1255E+07 -1.5857E-02  9.1470E-03 -1.5323E-03  
         48   1        -1.5335E+09 -3.6072E+08  4.3299E+08 -2.0361E-02  1.4189E-03  1.6083E-02  
         48   2        -1.4858E+09 -3.4331E+08  4.2387E+08 -1.9755E-02  1.4634E-03  1.5744E-02  
         48   3        -1.5855E+09  6.7296E+07 -3.6453E+08 -2.2939E-02  7.7565E-03 -1.3540E-02  
         48   4        -1.5345E+09  8.3560E+07 -3.6999E+08 -2.2279E-02  7.7700E-03 -1.3743E-02  
         49   1        -4.0578E+07  1.9211E+09  3.1139E+08 -8.8130E-03  2.7618E-02  1.1566E-02  
         49   2        -5.6113E+07  1.8723E+09  3.1651E+08 -8.8256E-03  2.6987E-02  1.1756E-02  
         49   3         3.6099E+08  1.8719E+09 -4.6028E+08 -2.8656E-03  2.5195E-02 -1.7096E-02  
         49   4         3.4441E+08  1.8263E+09 -4.5163E+08 -2.9070E-03  2.4614E-02 -1.6775E-02  
         50   1        -2.4979E+08  1.4000E+09 -6.6511E+07 -9.5684E-03  2.1071E-02 -2.4704E-03  
         50   2        -2.7020E+08  1.3630E+09 -5.3433E+07 -9.7013E-03  2.0629E-02 -1.9847E-03  
         50   3         3.9384E+08  1.3021E+09 -4.4060E+08  4.5829E-05  1.6913E-02 -1.6365E-02  
         50   4         3.7400E+08  1.2705E+09 -4.2802E+08 -1.0225E-04  1.6547E-02 -1.5898E-02  
         51   1        -9.5554E+07  8.2151E+08 -1.8606E+08 -4.8858E-03  1.2145E-02 -6.9108E-03  
         51   2        -1.1320E+08  7.9938E+08 -1.7559E+08 -5.0430E-03  1.1905E-02 -6.5217E-03  
         51   3         2.5824E+08  7.2389E+08 -2.9812E+08  5.8674E-04  9.2346E-03 -1.1073E-02  
         51   4         2.4266E+08  7.0552E+08 -2.8908E+08  4.4299E-04  9.0388E-03 -1.0737E-02  
         52   1        -3.7931E+07  4.2189E+08 -1.4076E+08 -2.3500E-03  6.1896E-03 -5.2284E-03  
         52   2        -4.5095E+07  4.1440E+08 -1.3682E+08 -2.4202E-03  6.1133E-03 -5.0819E-03  
         52   3         5.0493E+07  3.8054E+08 -1.5444E+08 -9.0956E-04  5.2199E-03 -5.7365E-03  
         52   4         4.4329E+07  3.7427E+08 -1.5110E+08 -9.7076E-04  5.1568E-03 -5.6122E-03  
         53   1        -1.1974E+08  1.8325E+08 -5.5157E+07 -2.4959E-03  3.1310E-03 -2.0487E-03  
         53   2        -1.1829E+08  1.8479E+08 -5.5962E+07 -2.4818E-03  3.1468E-03 -2.0786E-03  
         53   3        -1.2769E+08  2.0699E+08 -5.7243E+07 -2.7112E-03  3.5043E-03 -2.1262E-03  
         53   4        -1.2596E+08  2.0878E+08 -5.8194E+07 -2.6943E-03  3.5225E-03 -2.1615E-03  
         54   1        -3.8607E+08 -1.0073E+08  9.8599E+07 -5.0836E-03  2.1553E-04  3.6622E-03  
         54   2        -3.7124E+08 -8.7670E+07  9.1141E+07 -4.9277E-03  3.3861E-04  3.3852E-03  
         54   3        -4.5622E+08  2.0621E+08  1.3285E+07 -7.4011E-03  4.9011E-03  4.9343E-04  
         54   4        -4.3838E+08  2.2099E+08  4.6225E+06 -7.2097E-03  5.0357E-03  1.7169E-04  
         55   1        -9.1104E+08 -3.3026E+08  2.9782E+08 -1.1599E-02 -8.1361E-04  1.1062E-02  
         55   2        -8.8072E+08 -3.1072E+08  2.8551E+08 -1.1250E-02 -6.6426E-04  1.0605E-02  
         55   3        -9.9233E+08  3.2407E+08 -5.5439E+07 -1.5565E-02  8.8824E-03 -2.0592E-03  
         55   4        -9.5683E+08  3.4410E+08 -6.8296E+07 -1.5144E-02  9.0165E-03 -2.5367E-03  
         56   1        -1.4612E+09 -3.6349E+08  4.1596E+08 -1.9316E-02  1.0694E-03  1.5450E-02  
         56   2        -1.4143E+09 -3.4637E+08  4.0698E+08 -1.8720E-02  1.1133E-03  1.5116E-02  
         56   3        -1.5068E+09  6.4406E+07 -3.7496E+08 -2.1801E-02  7.3776E-03 -1.3927E-02  
         56   4        -1.4566E+09  8.0371E+07 -3.8034E+08 -2.1154E-02  7.3909E-03 -1.4127E-02  
         57   1        -3.6278E+07  1.8461E+09  3.2099E+08 -8.4302E-03  2.6529E-02  1.1922E-02  
         57   2        -5.1543E+07  1.7981E+09  3.2604E+08 -8.4426E-03  2.5909E-02  1.2110E-02  
         57   3         3.6588E+08  1.8032E+09 -4.4488E+08 -2.5010E-03  2.4191E-02 -1.6524E-02  
         57   4         3.4956E+08  1.7583E+09 -4.3636E+08 -2.5418E-03  2.3620E-02 -1.6208E-02  
         58   1        -2.5471E+08  1.3459E+09 -4.0339E+07 -9.4068E-03  2.0318E-02 -1.4983E-03  
         58   2        -2.7470E+08  1.3096E+09 -2.7533E+07 -9.5370E-03  1.9886E-02 -1.0227E-03  
         58   3         3.8611E+08  1.2585E+09 -4.1220E+08  1.2235E-04  1.6323E-02 -1.5310E-02  
         58   4         3.6664E+08  1.2275E+09 -3.9986E+08 -2.3053E-05  1.5965E-02 -1.4852E-02  
         59   1        -1.0799E+08  7.9631E+08 -1.5904E+08 -4.9555E-03  1.1839E-02 -5.9070E-03  
         59   2        -1.2499E+08  7.7487E+08 -1.4893E+08 -5.1064E-03  1.1605E-02 -5.5316E-03  
         59   3         2.3729E+08  7.0566E+08 -2.7190E+08  3.6558E-04  9.0640E-03 -1.0099E-02  
         59   4         2.2227E+08  6.8784E+08 -2.6316E+08  2.2742E-04  8.8737E-03 -9.7745E-03  
         60   1        -5.1603E+07  4.2508E+08 -1.2570E+08 -2.5590E-03  6.2938E-03 -4.6689E-03  
         60   2        -5.8203E+07  4.1774E+08 -1.2196E+08 -2.6218E-03  6.2172E-03 -4.5301E-03  
         60   3         2.7034E+07  3.8175E+08 -1.4333E+08 -1.2499E-03  5.3377E-03 -5.3239E-03  
         60   4         2.1357E+07  3.7561E+08 -1.4016E+08 -1.3047E-03  5.2743E-03 -5.2058E-03  
         61   1        -1.2471E+08  2.0507E+08 -5.9083E+07 -2.6605E-03  3.4641E-03 -2.1945E-03  
         61   2        -1.2324E+08  2.0621E+08 -5.9783E+07 -2.6444E-03  3.4741E-03 -2.2205E-03  
         61   3        -1.3781E+08  2.1787E+08 -6.5141E+07 -2.9025E-03  3.7031E-03 -2.4195E-03  
         61   4        -1.3606E+08  2.1920E+08 -6.5959E+07 -2.8831E-03  3.7146E-03 -2.4499E-03  
         62   1        -3.7182E+08 -7.7201E+07  7.6200E+07 -4.9809E-03  4.9067E-04  2.8303E-03  
         62   2        -3.5749E+08 -6.4699E+07  6.9032E+07 -4.8297E-03  6.0781E-04  2.5640E-03  
         62   3        -4.3739E+08  2.1895E+08 -1.0277E+07 -7.1868E-03  5.0024E-03 -3.8172E-04  
         62   4        -4.2017E+08  2.3307E+08 -1.8586E+07 -7.0013E-03  5.1303E-03 -6.9033E-04  
         63   1        -8.6874E+08 -3.1852E+08  2.6953E+08 -1.1046E-02 -8.2714E-04  1.0011E-02  
         63   2        -8.3906E+08 -2.9938E+08  2.5748E+08 -1.0704E-02 -6.8090E-04  9.5634E-03  
         63   3        -9.4043E+08  3.3083E+08 -8.1483E+07 -1.4853E-02  8.7566E-03 -3.0265E-03  
         63   4        -9.0573E+08  3.5041E+08 -9.4048E+07 -1.4441E-02  8.8876E-03 -3.4932E-03  
         64   1        -1.3899E+09 -3.6583E+08  3.9972E+08 -1.8287E-02  7.3044E-04  1.4847E-02  
         64   2        -1.3438E+09 -3.4899E+08  3.9087E+08 -1.7702E-02  7.7375E-04  1.4518E-02  
         64   3        -1.4293E+09  6.2044E+07 -3.8505E+08 -2.0684E-02  7.0118E-03 -1.4302E-02  
         64   4        -1.3801E+09  7.7727E+07 -3.9034E+08 -2.0048E-02  7.0249E-03 -1.4498E-02  
         65   1        -3.2469E+07  1.7723E+09  3.3029E+08 -8.0595E-03  2.5458E-02  1.2268E-02  
         65   2        -4.7476E+07  1.7251E+09  3.3527E+08 -8.0717E-03  2.4848E-02  1.2453E-02  
         65   3         3.7036E+08  1.7353E+09 -4.3016E+08 -2.1462E-03  2.3203E-02 -1.5977E-02  
         65   4         3.5428E+08  1.6912E+09 -4.2176E+08 -2.1867E-03  2.2641E-02 -1.5665E-02  
         66   1        -2.5958E+08  1.2925E+09 -1.5310E+07 -9.2478E-03  1.9577E-02 -5.6866E-04  
         66   2        -2.7916E+08  1.2571E+09 -2.7653E+06 -9.3755E-03  1.9154E-02 -1.0271E-04  
         66   3         3.7856E+08  1.2152E+09 -3.8502E+08  1.9987E-04  1.5738E-02 -1.4301E-02  
         66   4         3.5945E+08  1.1849E+09 -3.7291E+08  5.7030E-05  1.5386E-02 -1.3851E-02  
         67   1        -1.1953E+08  7.7116E+08 -1.3346E+08 -5.0125E-03  1.1529E-02 -4.9571E-03  
         67   2        -1.3590E+08  7.5038E+08 -1.2370E+08 -5.1574E-03  1.1302E-02 -4.5946E-03  
         67   3         2.1750E+08  6.8705E+08 -2.4705E+08  1.6269E-04  8.8829E-03 -9.1760E-03  
         67   4         2.0301E+08  6.6975E+08 -2.3860E+08  2.9851E-05  8.6978E-03 -8.8622E-03  
         68   1        -6.3662E+07  4.2667E+08 -1.1155E+08 -2.7380E-03  6.3681E-03 -4.1434E-03  
         68   2        -6.9780E+07  4.1943E+08 -1.0799E+08 -2.7944E-03  6.2908E-03 -4.0109E-03  
         68   3         6.3198E+06  3.8145E+08 -1.3286E+08 -1.5445E-03  5.4222E-03 -4.9347E-03  
         68   4         1.0594E+06  3.7539E+08 -1.2982E+08 -1.5937E-03  5.3582E-03 -4.8218E-03  
         69   1        -1.2813E+08  2.2408E+08 -6.2593E+07 -2.7908E-03  3.7504E-03 -2.3249E-03  
         69   2        -1.2662E+08  2.2489E+08 -6.3211E+07 -2.7726E-03  3.7553E-03 -2.3479E-03  
         69   3        -1.4608E+08  2.2712E+08 -7.2318E+07 -3.0602E-03  3.8706E-03 -2.6861E-03  
         69   4        -1.4426E+08  2.2806E+08 -7.3035E+07 -3.0382E-03  3.8762E-03 -2.7127E-03  
         70   1        -3.5709E+08 -5.5076E+07  5.5154E+07 -4.8653E-03  7.4359E-04  2.0486E-03  
         70   2        -3.4322E+08 -4.3107E+07  4.8261E+07 -4.7183E-03  8.5510E-04  1.7925E-03  
         70   3        -4.1840E+08  2.3065E+08 -3.2369E+07 -6.9657E-03  5.0881E-03 -1.2023E-03  
         70   4        -4.0175E+08  2.4416E+08 -4.0343E+07 -6.7857E-03  5.2097E-03 -1.4985E-03  
         71   1        -8.2681E+08 -3.0714E+08  2.4259E+08 -1.0495E-02 -8.4419E-04  9.0105E-03  
         71   2        -7.9773E+08 -2.8838E+08  2.3078E+08 -1.0160E-02 -7.0092E-04  8.5718E-03  
         71   3        -8.8928E+08  3.3747E+08 -1.0627E+08 -1.4150E-02  8.6322E-03 -3.9471E-03  
         71   4        -8.5536E+08  3.5661E+08 -1.1855E+08 -1.3748E-02  8.7603E-03 -4.4034E-03  
         72   1        -1.3196E+09 -3.6778E+08  3.8424E+08 -1.7275E-02  4.0143E-04  1.4272E-02  
         72   2        -1.2743E+09 -3.5120E+08  3.7552E+08 -1.6699E-02  4.4420E-04  1.3948E-02  
         72   3        -1.3530E+09  6.0183E+07 -3.9481E+08 -1.9586E-02  6.6583E-03 -1.4664E-02  
         72   4        -1.3046E+09  7.5597E+07 -4.0003E+08 -1.8962E-02  6.6713E-03 -1.4858E-02  
         73   1        -2.9124E+07  1.6996E+09  3.3931E+08 -7.7001E-03  2.4405E-02  1.2603E-02  
         73   2        -4.3886E+07  1.6532E+09  3.4423E+08 -7.7122E-03  2.3806E-02  1.2786E-02  
         73   3         3.7444E+08  1.6684E+09 -4.1609E+08 -1.8010E-03  2.2229E-02 -1.5455E-02  
         73   4         3.5860E+08  1.6249E+09 -4.0781E+08 -1.8410E-03  2.1676E-02 -1.5147E-02  
         74   1        -2.6439E+08  1.2400E+09  8.6132E+06 -9.0913E-03  1.8847E-02  3.1992E-04  
         74   2        -2.8358E+08  1.2053E+09  2.0907E+07 -9.2165E-03  1.8433E-02  7.7656E-04  
         74   3         3.7119E+08  1.1724E+09 -3.5903E+08  2.7818E-04  1.5158E-02 -1.3336E-02  
         74   4         3.5243E+08  1.1426E+09 -3.4715E+08  1.3781E-04  1.4812E-02 -1.2894E-02  
         75   1        -1.3020E+08  7.4608E+08 -1.0929E+08 -5.0574E-03  1.1216E-02 -4.0592E-03  
         75   2        -1.4599E+08  7.2591E+08 -9.9855E+07 -5.1966E-03  1.0996E-02 -3.7089E-03  
         75   3         1.9887E+08  6.6811E+08 -2.2353E+08 -2.2265E-05  8.6921E-03 -8.3026E-03  
         75   4         1.8489E+08  6.5130E+08 -2.1535E+08 -1.5005E-04  8.5120E-03 -7.9988E-03  
         76   1        -7.4228E+07  4.2673E+08 -9.8264E+07 -2.8892E-03  6.4142E-03 -3.6498E-03  
         76   2        -7.9936E+07  4.1955E+08 -9.4835E+07 -2.9400E-03  6.3361E-03 -3.5225E-03  
         76   3        -1.1834E+07  3.7977E+08 -1.2299E+08 -1.7966E-03  5.4760E-03 -4.5680E-03  
         76   4        -1.6741E+07  3.7376E+08 -1.2006E+08 -1.8410E-03  5.4112E-03 -4.4592E-03  
         77   1        -1.3014E+08  2.4047E+08 -6.5700E+07 -2.8898E-03  3.9931E-03 -2.4403E-03  
         77   2        -1.2855E+08  2.4100E+08 -6.6260E+07 -2.8693E-03  3.9937E-03 -2.4611E-03  
         77   3        -1.5259E+08  2.3484E+08 -7.8815E+07 -3.1863E-03  4.0088E-03 -2.9274E-03  
         77   4        -1.5068E+08  2.3546E+08 -7.9457E+07 -3.1616E-03  4.0095E-03 -2.9513E-03  
         78   1        -3.4193E+08 -3.4337E+07  3.5423E+07 -4.7376E-03  9.7490E-04  1.3157E-03  
         78   2        -3.2850E+08 -2.2873E+07  2.8790E+07 -4.5948E-03  1.0811E-03  1.0694E-03  
         78   3        -3.9928E+08  2.4135E+08 -5.3040E+07 -6.7383E-03  5.1590E-03 -1.9701E-03  
         78   4        -3.8317E+08  2.5428E+08 -6.0698E+07 -6.5636E-03  5.2747E-03 -2.2545E-03  
         79   1        -7.8523E+08 -2.9608E+08  2.1695E+08 -9.9486E-03 -8.6451E-04  8.0583E-03  
         79   2        -7.5674E+08 -2.7771E+08  2.0538E+08 -9.6203E-03 -7.2408E-04  7.6283E-03  
         79   3        -8.3887E+08  3.4398E+08 -1.2984E+08 -1.3458E-02  8.5092E-03 -4.8225E-03  
         79   4        -8.0569E+08  3.6271E+08 -1.4186E+08 -1.3064E-02  8.6345E-03 -5.2689E-03  
         80   1        -1.2502E+09 -3.6934E+08  3.6949E+08 -1.6278E-02  8.1822E-05  1.3724E-02  
         80   2        -1.2057E+09 -3.5301E+08  3.6091E+08 -1.5711E-02  1.2407E-04  1.3405E-02  
         80   3        -1.2779E+09  5.8793E+07 -4.0425E+08 -1.8507E-02  6.3165E-03 -1.5015E-02  
         80   4        -1.2303E+09  7.3951E+07 -4.0940E+08 -1.7893E-02  6.3293E-03 -1.5206E-02  
         81   1        -2.6219E+07  1.6280E+09  3.4807E+08 -7.3516E-03  2.3369E-02  1.2928E-02  
         81   2        -4.0747E+07  1.5823E+09  3.5292E+08 -7.3636E-03  2.2779E-02  1.3108E-02  
         81   3         3.7816E+08  1.6023E+09 -4.0265E+08 -1.4648E-03  2.1270E-02 -1.4956E-02  
         81   4         3.6255E+08  1.5595E+09 -3.9448E+08 -1.5043E-03  2.0725E-02 -1.4652E-02  
         82   1        -2.6914E+08  1.1882E+09  3.1466E+07 -8.9373E-03  1.8128E-02  1.1688E-03  
         82   2        -2.8795E+08  1.1542E+09  4.3520E+07 -9.0602E-03  1.7723E-02  1.6164E-03  
         82   3         3.6398E+08  1.1299E+09 -3.3420E+08  3.5716E-04  1.4582E-02 -1.2413E-02  
         82   4         3.4555E+08  1.1007E+09 -3.2253E+08  2.1918E-04  1.4243E-02 -1.1980E-02  
         83   1        -1.4003E+08  7.2108E+08 -8.6464E+07 -5.0908E-03  1.0901E-02 -3.2115E-03  
         83   2        -1.5527E+08  7.0150E+08 -7.7345E+07 -5.2246E-03  1.0687E-02 -2.8728E-03  
         83   3         1.8139E+08  6.4890E+08 -2.0131E+08 -1.8970E-04  8.4926E-03 -7.4773E-03  
         83   4         1.6788E+08  6.3256E+08 -1.9339E+08 -3.1269E-04  8.3171E-03 -7.1830E-03  
         84   1        -8.3412E+07  4.2535E+08 -8.5784E+07 -3.0145E-03  6.4338E-03 -3.1862E-03  
         84   2        -8.8776E+07  4.1820E+08 -8.2468E+07 -3.0605E-03  6.3547E-03 -3.0631E-03  
         84   3        -2.7605E+07  3.7684E+08 -1.1369E+08 -2.0094E-03  5.5017E-03 -4.2228E-03  
         84   4        -3.2213E+07  3.7086E+08 -1.1085E+08 -2.0496E-03  5.4361E-03 -4.1173E-03  
         85   1        -1.3087E+08  2.5442E+08 -6.8420E+07 -2.9600E-03  4.1955E-03 -2.5413E-03  
         85   2        -1.2919E+08  2.5471E+08 -6.8941E+07 -2.9372E-03  4.1924E-03 -2.5607E-03  
         85   3        -1.5745E+08  2.4116E+08 -8.4666E+07 -3.2829E-03  4.1199E-03 -3.1447E-03  
         85   4        -1.5543E+08  2.4152E+08 -8.5256E+07 -3.2555E-03  4.1164E-03 -3.1667E-03  
         86   1        -3.2641E+08 -1.4954E+07  1.6970E+07 -4.5989E-03  1.1853E-03  6.3032E-04  
         86   2        -3.1339E+08 -3.9673E+06  1.0584E+07 -4.4600E-03  1.2864E-03  3.9311E-04  
         86   3        -3.8005E+08  2.5110E+08 -7.2338E+07 -6.5054E-03  5.2159E-03 -2.6868E-03  
         86   4        -3.6446E+08  2.6347E+08 -7.9697E+07 -6.3357E-03  5.3259E-03 -2.9602E-03  
         87   1        -7.4402E+08 -2.8536E+08  1.9258E+08 -9.4059E-03 -8.8787E-04  7.1529E-03  
         87   2        -7.1608E+08 -2.6734E+08  1.8123E+08 -9.0840E-03 -7.5017E-04  6.7313E-03  
         87   3        -7.8919E+08  3.5037E+08 -1.5223E+08 -1.2776E-02  8.3875E-03 -5.6542E-03  
         87   4        -7.5672E+08  3.6869E+08 -1.6399E+08 -1.2390E-02  8.5101E-03 -6.0911E-03  
         88   1        -1.1818E+09 -3.7056E+08  3.5546E+08 -1.5295E-02 -2.2890E-04  1.3203E-02  
         88   2        -1.1379E+09 -3.5447E+08  3.4700E+08 -1.4736E-02 -1.8715E-04  1.2888E-02  
         88   3        -1.2039E+09  5.7847E+07 -4.1340E+08 -1.7446E-02  5.9858E-03 -1.5355E-02  
         88   4        -1.1571E+09  7.2762E+07 -4.1847E+08 -1.6842E-02  5.9984E-03 -1.5543E-02  
         89   1        -2.3728E+07  1.5574E+09  3.5656E+08 -7.0133E-03  2.2350E-02  1.3244E-02  
         89   2        -3.8034E+07  1.5124E+09  3.6135E+08 -7.0252E-03  2.1769E-02  1.3421E-02  
         89   3         3.8153E+08  1.5371E+09 -3.8982E+08 -1.1372E-03  2.0323E-02 -1.4479E-02  
         89   4         3.6613E+08  1.4949E+09 -3.8176E+08 -1.1763E-03  1.9786E-02 -1.4180E-02  
         90   1        -2.7382E+08  1.1372E+09  5.3283E+07 -8.7855E-03  1.7419E-02  1.9791E-03  
         90   2        -2.9227E+08  1.1039E+09  6.5104E+07 -8.9062E-03  1.7022E-02  2.4182E-03  
         90   3         3.5694E+08  1.0879E+09 -3.1048E+08  4.3673E-04  1.4012E-02 -1.1532E-02  
         90   4         3.3883E+08  1.0592E+09 -2.9901E+08  3.0104E-04  1.3679E-02 -1.1106E-02  
         91   1        -1.4907E+08  6.9618E+08 -6.4949E+07 -5.1132E-03  1.0584E-02 -2.4124E-03  
         91   2        -1.6378E+08  6.7716E+08 -5.6125E+07 -5.2418E-03  1.0376E-02 -2.0846E-03  
         91   3         1.6503E+08  6.2945E+08 -1.8035E+08 -3.4009E-04  8.2849E-03 -6.6987E-03  
         91   4         1.5197E+08  6.1356E+08 -1.7267E+08 -4.5856E-04  8.1138E-03 -6.4134E-03  
         92   1        -9.1318E+07  4.2262E+08 -7.4070E+07 -3.1158E-03  6.4288E-03 -2.7512E-03  
         92   2        -9.6394E+07  4.1548E+08 -7.0843E+07 -3.1577E-03  6.3485E-03 -2.6313E-03  
         92   3        -4.1157E+07  3.7278E+08 -1.0494E+08 -2.1856E-03  5.5019E-03 -3.8979E-03  
         92   4        -4.5517E+07  3.6681E+08 -1.0217E+08 -2.2223E-03  5.4352E-03 -3.7950E-03  
         93   1        -1.3045E+08  2.6609E+08 -7.0766E+07 -3.0039E-03  4.3604E-03 -2.6284E-03  
         93   2        -1.2866E+08  2.6620E+08 -7.1263E+07 -2.9789E-03  4.3543E-03 -2.6469E-03  
         93   3        -1.6078E+08  2.4617E+08 -8.9904E+07 -3.3518E-03  4.2058E-03 -3.3393E-03  
         93   4        -1.5862E+08  2.4633E+08 -9.0462E+07 -3.3217E-03  4.1989E-03 -3.3600E-03  
         94   1        -3.1058E+08  3.1086E+06 -2.4212E+05 -4.4502E-03  1.3755E-03 -8.9929E-06  
         94   2        -2.9796E+08  1.3644E+07 -6.3957E+06 -4.3150E-03  1.4719E-03 -2.3755E-04  
         94   3        -3.6074E+08  2.5992E+08 -9.0307E+07 -6.2674E-03  5.2592E-03 -3.3543E-03  
         94   4        -3.4564E+08  2.7178E+08 -9.7384E+07 -6.1025E-03  5.3639E-03 -3.6171E-03  
         95   1        -7.0318E+08 -2.7494E+08  1.6943E+08 -8.8671E-03 -9.1412E-04  6.2930E-03  
         95   2        -6.7577E+08 -2.5726E+08  1.5829E+08 -8.5514E-03 -7.7904E-04  5.8795E-03  
         95   3        -7.4022E+08  3.5662E+08 -1.7348E+08 -1.2103E-02  8.2669E-03 -6.4436E-03  
         95   4        -7.0842E+08  3.7456E+08 -1.8500E+08 -1.1726E-02  8.3870E-03 -6.8713E-03  
         96   1        -1.1142E+09 -3.7145E+08  3.4213E+08 -1.4325E-02 -5.3122E-04  1.2708E-02  
         96   2        -1.0709E+09 -3.5558E+08  3.3377E+08 -1.3775E-02 -4.8994E-04  1.2397E-02  
         96   3        -1.1309E+09  5.7317E+07 -4.2225E+08 -1.6401E-02  5.6655E-03 -1.5684E-02  
         96   4        -1.0849E+09  7.2002E+07 -4.2726E+08 -1.5807E-02  5.6780E-03 -1.5870E-02  
         97   1        -2.1628E+07  1.4877E+09  3.6480E+08 -6.6849E-03  2.1346E-02  1.3550E-02  
         97   2        -3.5722E+07  1.4435E+09  3.6953E+08 -6.6966E-03  2.0774E-02  1.3725E-02  
         97   3         3.8456E+08  1.4727E+09 -3.7759E+08 -8.1768E-04  1.9390E-02 -1.4025E-02  
         97   4         3.6936E+08  1.4311E+09 -3.6962E+08 -8.5644E-04  1.8861E-02 -1.3729E-02  
         98   1        -2.7844E+08  1.0869E+09  7.4093E+07 -8.6360E-03  1.6721E-02  2.7520E-03  
         98   2        -2.9654E+08  1.0542E+09  8.5691E+07 -8.7544E-03  1.6331E-02  3.1828E-03  
         98   3         3.5005E+08  1.0462E+09 -2.8785E+08  5.1685E-04  1.3446E-02 -1.0691E-02  
         98   4         3.3225E+08  1.0180E+09 -2.7658E+08  3.8338E-04  1.3120E-02 -1.0273E-02  
         99   1        -1.5733E+08  6.7141E+08 -4.4697E+07 -5.1251E-03  1.0266E-02 -1.6602E-03  
         99   2        -1.7155E+08  6.5291E+08 -3.6151E+07 -5.2489E-03  1.0062E-02 -1.3428E-03  
         99   3         1.4977E+08  6.0983E+08 -1.6060E+08 -4.7399E-04  8.0699E-03 -5.9652E-03  
         99   4         1.3713E+08  5.9435E+08 -1.5315E+08 -5.8817E-04  7.9030E-03 -5.6885E-03  
        100   1        -9.8042E+07  4.1863E+08 -6.3084E+07 -3.1947E-03  6.4006E-03 -2.3431E-03  
        100   2        -1.0288E+08  4.1148E+08 -5.9926E+07 -3.2332E-03  6.3192E-03 -2.2258E-03  
        100   3        -5.2649E+07  3.6772E+08 -9.6722E+07 -2.3281E-03  5.4788E-03 -3.5925E-03  
        100   4        -5.6803E+07  3.6173E+08 -9.4006E+07 -2.3618E-03  5.4111E-03 -3.4916E-03  
        101   1        -1.2899E+08  2.7565E+08 -7.2751E+07 -3.0241E-03  4.4907E-03 -2.7022E-03  
        101   2        -1.2709E+08  2.7562E+08 -7.3237E+07 -2.9968E-03  4.4821E-03 -2.7202E-03  
        101   3        -1.6267E+08  2.4999E+08 -9.4557E+07 -3.3952E-03  4.2684E-03 -3.5121E-03  
        101   4        -1.6037E+08  2.4999E+08 -9.5098E+07 -3.3624E-03  4.2586E-03 -3.5322E-03  
        102   1        -2.9449E+08  1.9887E+07 -1.6252E+07 -4.2923E-03  1.5462E-03 -6.0364E-04  
        102   2        -2.8224E+08  2.9997E+07 -2.2185E+07 -4.1606E-03  1.6381E-03 -8.2403E-04  
        102   3        -3.4140E+08  2.6787E+08 -1.0699E+08 -6.0251E-03  5.2899E-03 -3.9740E-03  
        102   4        -3.2675E+08  2.7924E+08 -1.1380E+08 -5.8646E-03  5.3896E-03 -4.2270E-03  
        103   1        -6.6271E+08 -2.6483E+08  1.4746E+08 -8.3323E-03 -9.4313E-04  5.4772E-03  
        103   2        -6.3582E+08 -2.4749E+08  1.3654E+08 -8.0225E-03 -8.1056E-04  5.0714E-03  
        103   3        -6.9195E+08  3.6274E+08 -1.9362E+08 -1.1440E-02  8.1475E-03 -7.1918E-03  
        103   4        -6.6080E+08  3.8032E+08 -2.0491E+08 -1.1070E-02  8.2651E-03 -7.6108E-03  
        104   1        -1.0474E+09 -3.7202E+08  3.2946E+08 -1.3369E-02 -8.2558E-04  1.2237E-02  
        104   2        -1.0048E+09 -3.5637E+08  3.2121E+08 -1.2827E-02 -7.8475E-04  1.1931E-02  
        104   3        -1.0589E+09  5.7179E+07 -4.3083E+08 -1.5373E-02  5.3552E-03 -1.6002E-02  
        104   4        -1.0136E+09  7.1645E+07 -4.3576E+08 -1.4787E-02  5.3675E-03 -1.6186E-02  
        105   1        -1.9898E+07  1.4190E+09  3.7280E+08 -6.3656E-03  2.0356E-02  1.3847E-02  
        105   2        -3.3790E+07  1.3754E+09  3.7748E+08 -6.3772E-03  1.9793E-02  1.4021E-02  
        105   3         3.8728E+08  1.4090E+09 -3.6593E+08 -5.0600E-04  1.8469E-02 -1.3592E-02  
        105   4         3.7228E+08  1.3679E+09 -3.5806E+08 -5.4438E-04  1.7947E-02 -1.3299E-02  
        106   1        -2.8298E+08  1.0374E+09  9.3926E+07 -8.4886E-03  1.6033E-02  3.4887E-03  
        106   2        -3.0075E+08  1.0053E+09  1.0531E+08 -8.6049E-03  1.5651E-02  3.9115E-03  
        106   3         3.4333E+08  1.0050E+09 -2.6627E+08  5.9751E-04  1.2886E-02 -9.8900E-03  
        106   4         3.2582E+08  9.7729E+08 -2.5519E+08  4.6617E-04  1.2565E-02 -9.4784E-03  
        107   1        -1.6486E+08  6.4676E+08 -2.5664E+07 -5.1270E-03  9.9460E-03 -9.5325E-04  
        107   2        -1.7861E+08  6.2875E+08 -1.7382E+07 -5.2463E-03  9.7477E-03 -6.4563E-04  
        107   3         1.3558E+08  5.9006E+08 -1.4203E+08 -5.9196E-04  7.8484E-03 -5.2756E-03  
        107   4         1.2335E+08  5.7498E+08 -1.3480E+08 -7.0209E-04  7.6854E-03 -5.0069E-03  
        108   1        -1.0367E+08  4.1348E+08 -5.2789E+07 -3.2531E-03  6.3512E-03 -1.9607E-03  
        108   2        -1.0832E+08  4.0630E+08 -4.9683E+07 -3.2887E-03  6.2685E-03 -1.8454E-03  
        108   3        -6.2232E+07  3.6175E+08 -8.9003E+07 -2.4394E-03  5.4346E-03 -3.3058E-03  
        108   4        -6.6218E+07  3.5574E+08 -8.6327E+07 -2.4706E-03  5.3658E-03 -3.2064E-03  
        109   1        -1.2661E+08  2.8325E+08 -7.4387E+07 -3.0226E-03  4.5891E-03 -2.7630E-03  
        109   2        -1.2459E+08  2.8311E+08 -7.4875E+07 -2.9932E-03  4.5784E-03 -2.7811E-03  
        109   3        -1.6323E+08  2.5270E+08 -9.8651E+07 -3.4149E-03  4.3095E-03 -3.6642E-03  
        109   4        -1.6079E+08  2.5257E+08 -9.9190E+07 -3.3795E-03  4.2973E-03 -3.6842E-03  
        110   1        -2.7820E+08  3.5423E+07 -3.1096E+07 -4.1261E-03  1.6983E-03 -1.1550E-03  
        110   2        -2.6630E+08  4.5130E+07 -3.6822E+07 -3.9977E-03  1.7860E-03 -1.3677E-03  
        110   3        -3.2203E+08  2.7498E+08 -1.2244E+08 -5.7789E-03  5.3084E-03 -4.5476E-03  
        110   4        -3.0782E+08  2.8589E+08 -1.2899E+08 -5.6227E-03  5.4033E-03 -4.7912E-03  
        111   1        -6.2263E+08 -2.5502E+08  1.2665E+08 -7.8017E-03 -9.7480E-04  4.7043E-03  
        111   2        -5.9623E+08 -2.3800E+08  1.1593E+08 -7.4976E-03 -8.4465E-04  4.3059E-03  
        111   3        -6.4436E+08  3.6872E+08 -2.1269E+08 -1.0785E-02  8.0290E-03 -7.9001E-03  
        111   4        -6.1384E+08  3.8595E+08 -2.2375E+08 -1.0423E-02  8.1443E-03 -8.3107E-03  
        112   1        -9.8145E+08 -3.7230E+08  3.1745E+08 -1.2425E-02 -1.1124E-03  1.1791E-02  
        112   2        -9.3937E+08 -3.5685E+08  3.0930E+08 -1.1890E-02 -1.0720E-03  1.1488E-02  
        112   3        -9.8793E+08  5.7409E+07 -4.3913E+08 -1.4359E-02  5.0541E-03 -1.6311E-02  
        112   4        -9.4325E+08  7.1667E+07 -4.4401E+08 -1.3782E-02  5.0663E-03 -1.6492E-02  
        113   1        -1.8515E+07  1.3511E+09  3.8057E+08 -6.0551E-03  1.9381E-02  1.4135E-02  
        113   2        -3.2215E+07  1.3081E+09  3.8519E+08 -6.0666E-03  1.8826E-02  1.4307E-02  
        113   3         3.8969E+08  1.3460E+09 -3.5483E+08 -2.0173E-04  1.7559E-02 -1.3179E-02  
        113   4         3.7488E+08  1.3055E+09 -3.4705E+08 -2.3975E-04  1.7044E-02 -1.2890E-02  
        114   1        -2.8745E+08  9.8854E+08  1.1281E+08 -8.3431E-03  1.5354E-02  4.1900E-03  
        114   2        -3.0489E+08  9.5708E+08  1.2399E+08 -8.4574E-03  1.4979E-02  4.6052E-03  
        114   3         3.3676E+08  9.6416E+08 -2.4572E+08  6.7870E-04  1.2330E-02 -9.1266E-03  
        114   4         3.1954E+08  9.3693E+08 -2.3482E+08  5.4942E-04  1.2015E-02 -8.7219E-03  
        115   1        -1.7168E+08  6.2225E+08 -7.8106E+06 -5.1194E-03  9.6251E-03 -2.9011E-04  
        115   2        -1.8500E+08  6.0472E+08  2.2276E+05 -5.2345E-03  9.4317E-03  8.2738E-06  
        115   3         1.2244E+08  5.7019E+08 -1.2461E+08 -6.9461E-04  7.6209E-03 -4.6282E-03  
        115   4         1.1058E+08  5.5549E+08 -1.1758E+08 -8.0092E-04  7.4617E-03 -4.3672E-03  
        116   1        -1.0830E+08  4.0725E+08 -4.3154E+07 -3.2925E-03  6.2821E-03 -1.6029E-03  
        116   2        -1.1279E+08  4.0004E+08 -4.0086E+07 -3.3257E-03  6.1982E-03 -1.4889E-03  
        116   3        -7.0049E+07  3.5499E+08 -8.1764E+07 -2.5221E-03  5.3715E-03 -3.0370E-03  
        116   4        -7.3901E+07  3.4895E+08 -7.9116E+07 -2.5512E-03  5.3017E-03 -2.9386E-03  
        117   1        -1.2341E+08  2.8904E+08 -7.5690E+07 -3.0018E-03  4.6581E-03 -2.8113E-03  
        117   2        -1.2127E+08  2.8882E+08 -7.6187E+07 -2.9703E-03  4.6457E-03 -2.8298E-03  
        117   3        -1.6258E+08  2.5438E+08 -1.0221E+08 -3.4128E-03  4.3308E-03 -3.7964E-03  
        117   4        -1.5999E+08  2.5417E+08 -1.0276E+08 -3.3749E-03  4.3167E-03 -3.8167E-03  
        118   1        -2.6175E+08  4.9759E+07 -4.4813E+07 -3.9526E-03  1.8326E-03 -1.6645E-03  
        118   2        -2.5019E+08  5.9086E+07 -5.0343E+07 -3.8273E-03  1.9163E-03 -1.8699E-03  
        118   3        -3.0267E+08  2.8127E+08 -1.3668E+08 -5.5293E-03  5.3153E-03 -5.0767E-03  
        118   4        -2.8887E+08  2.9175E+08 -1.4300E+08 -5.3771E-03  5.4058E-03 -5.3115E-03  
        119   1        -5.8293E+08 -2.4551E+08  1.0697E+08 -7.2754E-03 -1.0091E-03  3.9730E-03  
        119   2        -5.5701E+08 -2.2879E+08  9.6432E+07 -6.9767E-03 -8.8123E-04  3.5818E-03  
        119   3        -5.9744E+08  3.7457E+08 -2.3072E+08 -1.0140E-02  7.9114E-03 -8.5696E-03  
        119   4        -5.6752E+08  3.9145E+08 -2.4156E+08 -9.7851E-03  8.0244E-03 -8.9721E-03  
        120   1        -9.1621E+08 -3.7231E+08  3.0607E+08 -1.1493E-02 -1.3921E-03  1.1368E-02  
        120   2        -8.7467E+08 -3.5705E+08  2.9802E+08 -1.0965E-02 -1.3521E-03  1.1069E-02  
        120   3        -9.1782E+08  5.7982E+07 -4.4717E+08 -1.3360E-02  4.7618E-03 -1.6609E-02  
        120   4        -8.7376E+08  7.2044E+07 -4.5199E+08 -1.2791E-02  4.7739E-03 -1.6788E-02  
        121   1        -1.7459E+07  1.2841E+09  3.8812E+08 -5.7529E-03  1.8420E-02  1.4416E-02  
        121   2        -3.0976E+07  1.2417E+09  3.9269E+08 -5.7642E-03  1.7872E-02  1.4585E-02  
        121   3         3.9182E+08  1.2838E+09 -3.4427E+08  9.5480E-05  1.6661E-02 -1.2787E-02  
        121   4         3.7718E+08  1.2438E+09 -3.3658E+08  5.7798E-05  1.6152E-02 -1.2501E-02  
        122   1        -2.9184E+08  9.4040E+08  1.3077E+08 -8.1994E-03  1.4685E-02  4.8571E-03  
        122   2        -3.0897E+08  9.0952E+08  1.4174E+08 -8.3118E-03  1.4317E-02  5.2648E-03  
        122   3         3.3035E+08  9.2372E+08 -2.2616E+08  7.6043E-04  1.1780E-02 -8.4004E-03  
        122   4         3.1341E+08  8.9695E+08 -2.1544E+08  6.3315E-04  1.1470E-02 -8.0022E-03  
        123   1        -1.7783E+08  5.9791E+08  8.9043E+06 -5.1029E-03  9.3037E-03  3.3073E-04  
        123   2        -1.9072E+08  5.8082E+08  1.6702E+07 -5.2138E-03  9.1148E-03  6.2038E-04  
        123   3         1.1030E+08  5.5027E+08 -1.0828E+08 -7.8256E-04  7.3882E-03 -4.0218E-03  
        123   4         9.8807E+07  5.3592E+08 -1.0145E+08 -8.8528E-04  7.2326E-03 -3.7680E-03  
        124   1        -1.1199E+08  4.0005E+08 -3.4150E+07 -3.3144E-03  6.1949E-03 -1.2684E-03  
        124   2        -1.1636E+08  3.9278E+08 -3.1108E+07 -3.3456E-03  6.1099E-03 -1.1554E-03  
        124   3        -7.6238E+07  3.4753E+08 -7.4984E+07 -2.5785E-03  5.2915E-03 -2.7851E-03  
        124   4        -7.9985E+07  3.4145E+08 -7.2354E+07 -2.6060E-03  5.2206E-03 -2.6874E-03  
        125   1        -1.1951E+08  2.9316E+08 -7.6670E+07 -2.9636E-03  4.7002E-03 -2.8477E-03  
        125   2        -1.1724E+08  2.9288E+08 -7.7185E+07 -2.9301E-03  4.6865E-03 -2.8669E-03  
        125   3        -1.6081E+08  2.5513E+08 -1.0526E+08 -3.3907E-03  4.3339E-03 -3.9095E-03  
        125   4        -1.5808E+08  2.5486E+08 -1.0582E+08 -3.3505E-03  4.3183E-03 -3.9304E-03  
        126   1        -2.4519E+08  6.2937E+07 -5.7440E+07 -3.7724E-03  1.9499E-03 -2.1335E-03  
        126   2        -2.3394E+08  7.1906E+07 -6.2783E+07 -3.6501E-03  2.0298E-03 -2.3319E-03  
        126   3        -2.8334E+08  2.8679E+08 -1.4976E+08 -5.2768E-03  5.3114E-03 -5.5626E-03  
        126   4        -2.6994E+08  2.9686E+08 -1.5586E+08 -5.1285E-03  5.3977E-03 -5.7890E-03  
        127   1        -5.4362E+08 -2.3629E+08  8.8368E+07 -6.7533E-03 -1.0458E-03  3.2822E-03  
        127   2        -5.1815E+08 -2.1986E+08  7.8020E+07 -6.4599E-03 -9.2023E-04  2.8979E-03  
        127   3        -5.5117E+08  3.8027E+08 -2.4773E+08 -9.5037E-03  7.7946E-03 -9.2013E-03  
        127   4        -5.2184E+08  3.9683E+08 -2.5836E+08 -9.1555E-03  7.9055E-03 -9.5961E-03  
        128   1        -8.5166E+08 -3.7205E+08  2.9531E+08 -1.0572E-02 -1.6651E-03  1.0969E-02  
        128   2        -8.1064E+08 -3.5698E+08  2.8735E+08 -1.0051E-02 -1.6255E-03  1.0673E-02  
        128   3        -8.4857E+08  5.8878E+07 -4.5496E+08 -1.2375E-02  4.4778E-03 -1.6899E-02  
        128   4        -8.0510E+08  7.2753E+07 -4.5973E+08 -1.1813E-02  4.4897E-03 -1.7076E-02  
        129   1        -1.6711E+07  1.2179E+09  3.9544E+08 -5.4585E-03  1.7471E-02  1.4688E-02  
        129   2        -3.0054E+07  1.1761E+09  3.9996E+08 -5.4697E-03  1.6930E-02  1.4856E-02  
        129   3         3.9368E+08  1.2222E+09 -3.3424E+08  3.8596E-04  1.5773E-02 -1.2415E-02  
        129   4         3.7920E+08  1.1827E+09 -3.2663E+08  3.4861E-04  1.5270E-02 -1.2132E-02  
        130   1        -2.9615E+08  8.9294E+08  1.4783E+08 -8.0575E-03  1.4025E-02  5.4907E-03  
        130   2        -3.1297E+08  8.6262E+08  1.5861E+08 -8.1680E-03  1.3665E-02  5.8913E-03  
        130   3         3.2410E+08  8.8370E+08 -2.0758E+08  8.4274E-04  1.1235E-02 -7.7103E-03  
        130   4         3.0743E+08  8.5736E+08 -1.9704E+08  7.1738E-04  1.0931E-02 -7.3184E-03  
        131   1        -1.8332E+08  5.7373E+08  2.4518E+07 -5.0777E-03  8.9819E-03  9.1067E-04  
        131   2        -1.9582E+08  5.5706E+08  3.2094E+07 -5.1849E-03  8.7973E-03  1.1921E-03  
        131   3         9.9141E+07  5.3031E+08 -9.3019E+07 -8.5647E-04  7.1510E-03 -3.4550E-03  
        131   4         8.7987E+07  5.1631E+08 -8.6370E+07 -9.5578E-04  6.9987E-03 -3.2080E-03  
        132   1        -1.1483E+08  3.9195E+08 -2.5749E+07 -3.3202E-03  6.0914E-03 -9.5639E-04  
        132   2        -1.1910E+08  3.8464E+08 -2.2725E+07 -3.3499E-03  6.0052E-03 -8.4407E-04  
        132   3        -8.0934E+07  3.3947E+08 -6.8640E+07 -2.6111E-03  5.1964E-03 -2.5495E-03  
        132   4        -8.4599E+07  3.3334E+08 -6.6022E+07 -2.6372E-03  5.1246E-03 -2.4522E-03  
        133   1        -1.1498E+08  2.9574E+08 -7.7342E+07 -2.9101E-03  4.7176E-03 -2.8727E-03  
        133   2        -1.1260E+08  2.9543E+08 -7.7880E+07 -2.8747E-03  4.7030E-03 -2.8927E-03  
        133   3        -1.5804E+08  2.5501E+08 -1.0781E+08 -3.3506E-03  4.3203E-03 -4.0043E-03  
        133   4        -1.5516E+08  2.5470E+08 -1.0840E+08 -3.3082E-03  4.3036E-03 -4.0261E-03  
        134   1        -2.2855E+08  7.5004E+07 -6.9012E+07 -3.5865E-03  2.0510E-03 -2.5633E-03  
        134   2        -2.1760E+08  8.3634E+07 -7.4179E+07 -3.4670E-03  2.1274E-03 -2.7552E-03  
        134   3        -2.6407E+08  2.9157E+08 -1.6172E+08 -5.0220E-03  5.2970E-03 -6.0068E-03  
        134   4        -2.5104E+08  3.0125E+08 -1.6760E+08 -4.8773E-03  5.3794E-03 -6.2253E-03  
        135   1        -5.0470E+08 -2.2736E+08  7.0832E+07 -6.2356E-03 -1.0850E-03  2.6309E-03  
        135   2        -4.7968E+08 -2.1122E+08  6.0662E+07 -5.9473E-03 -9.6160E-04  2.2531E-03  
        135   3        -5.0556E+08  3.8583E+08 -2.6374E+08 -8.8759E-03  7.6786E-03 -9.7962E-03  
        135   4        -4.7678E+08  4.0208E+08 -2.7417E+08 -8.5343E-03  7.7873E-03 -1.0184E-02  
        136   1        -7.8779E+08 -3.7155E+08  2.8515E+08 -9.6617E-03 -1.9317E-03  1.0591E-02  
        136   2        -7.4726E+08 -3.5665E+08  2.7728E+08 -9.1466E-03 -1.8925E-03  1.0299E-02  
        136   3        -7.8013E+08  6.0074E+07 -4.6251E+08 -1.1402E-02  4.2016E-03 -1.7179E-02  
        136   4        -7.3722E+08  7.3772E+07 -4.6722E+08 -1.0848E-02  4.2134E-03 -1.7354E-02  
        137   1        -1.6251E+07  1.1525E+09  4.0256E+08 -5.1715E-03  1.6534E-02  1.4952E-02  
        137   2        -2.9429E+07  1.1112E+09  4.0703E+08 -5.1826E-03  1.6000E-02  1.5118E-02  
        137   3         3.9527E+08  1.1612E+09 -3.2472E+08  6.7004E-04  1.4895E-02 -1.2061E-02  
        137   4         3.8096E+08  1.1222E+09 -3.1720E+08  6.3301E-04  1.4398E-02 -1.1782E-02  
        138   1        -3.0036E+08  8.4615E+08  1.6401E+08 -7.9173E-03  1.3375E-02  6.0917E-03  
        138   2        -3.1690E+08  8.1637E+08  1.7461E+08 -8.0259E-03  1.3021E-02  6.4854E-03  
        138   3         3.1802E+08  8.4408E+08 -1.8995E+08  9.2565E-04  1.0695E-02 -7.0553E-03  
        138   4         3.0160E+08  8.1817E+08 -1.7957E+08  8.0214E-04  1.0396E-02 -6.6696E-03  
        139   1        -1.8819E+08  5.4974E+08  3.9067E+07 -5.0445E-03  8.6600E-03  1.4511E-03  
        139   2        -2.0032E+08  5.3347E+08  4.6433E+07 -5.1481E-03  8.4796E-03  1.7247E-03  
        139   3         8.8922E+07  5.1037E+08 -7.8786E+07 -9.1698E-04  6.9099E-03 -2.9263E-03  
        139   4         7.8088E+07  4.9668E+08 -7.2312E+07 -1.0131E-03  6.7608E-03 -2.6859E-03  
        140   1        -1.1688E+08  3.8305E+08 -1.7928E+07 -3.3114E-03  5.9730E-03 -6.6589E-04  
        140   2        -1.2108E+08  3.7569E+08 -1.4914E+07 -3.3399E-03  5.8859E-03 -5.5395E-04  
        140   3        -8.4262E+07  3.3089E+08 -6.2714E+07 -2.6218E-03  5.0881E-03 -2.3294E-03  
        140   4        -8.7867E+07  3.2471E+08 -6.0101E+07 -2.6469E-03  5.0153E-03 -2.2323E-03  
        141   1        -1.0993E+08  2.9692E+08 -7.7720E+07 -2.8429E-03  4.7128E-03 -2.8867E-03  
        141   2        -1.0743E+08  2.9659E+08 -7.8285E+07 -2.8059E-03  4.6975E-03 -2.9077E-03  
        141   3        -1.5435E+08  2.5409E+08 -1.0988E+08 -3.2940E-03  4.2914E-03 -4.0814E-03  
        141   4        -1.5134E+08  2.5378E+08 -1.1050E+08 -3.2496E-03  4.2740E-03 -4.1043E-03  
        142   1        -2.1188E+08  8.6005E+07 -7.9566E+07 -3.3955E-03  2.1367E-03 -2.9553E-03  
        142   2        -2.0122E+08  9.4315E+07 -8.4566E+07 -3.2788E-03  2.2097E-03 -3.1410E-03  
        142   3        -2.4488E+08  2.9563E+08 -1.7259E+08 -4.7653E-03  5.2728E-03 -6.4105E-03  
        142   4        -2.3220E+08  3.0494E+08 -1.7828E+08 -4.6241E-03  5.3515E-03 -6.6217E-03  
        143   1        -4.6618E+08 -2.1872E+08  5.4329E+07 -5.7224E-03 -1.1267E-03  2.0179E-03  
        143   2        -4.4158E+08 -2.0284E+08  4.4330E+07 -5.4390E-03 -1.0053E-03  1.6465E-03  
        143   3        -4.6058E+08  3.9124E+08 -2.7879E+08 -8.2565E-03  7.5631E-03 -1.0355E-02  
        143   4        -4.3234E+08  4.0719E+08 -2.8903E+08 -7.9213E-03  7.6699E-03 -1.0735E-02  
        144   1        -7.2455E+08 -3.7082E+08  2.7558E+08 -8.7614E-03 -2.1923E-03  1.0236E-02  
        144   2        -6.8448E+08 -3.5608E+08  2.6780E+08 -8.2522E-03 -2.1535E-03  9.9468E-03  
        144   3        -7.1246E+08  6.1551E+07 -4.6983E+08 -1.0442E-02  3.9327E-03 -1.7451E-02  
        144   4        -6.7008E+08  7.5081E+07 -4.7448E+08 -9.8944E-03  3.9444E-03 -1.7624E-02  
        145   1        -1.6063E+07  1.0878E+09  4.0948E+08 -4.8915E-03  1.5609E-02  1.5209E-02  
        145   2        -2.9084E+07  1.0470E+09  4.1390E+08 -4.9025E-03  1.5081E-02  1.5374E-02  
        145   3         3.9662E+08  1.1009E+09 -3.1572E+08  9.4802E-04  1.4027E-02 -1.1727E-02  
        145   4         3.8246E+08  1.0622E+09 -3.0827E+08  9.1130E-04  1.3536E-02 -1.1450E-02  
        146   1        -3.0449E+08  8.0001E+08  1.7933E+08 -7.7785E-03  1.2734E-02  6.6608E-03  
        146   2        -3.2075E+08  7.7076E+08  1.8975E+08 -7.8854E-03  1.2386E-02  7.0479E-03  
        146   3         3.1211E+08  8.0488E+08 -1.7324E+08  1.0092E-03  1.0161E-02 -6.4347E-03  
        146   4         2.9594E+08  7.7938E+08 -1.6302E+08  8.8747E-04  9.8657E-03 -6.0549E-03  
        147   1        -1.9246E+08  5.2595E+08  5.2587E+07 -5.0036E-03  8.3384E-03  1.9532E-03  
        147   2        -2.0424E+08  5.1006E+08  5.9753E+07 -5.1037E-03  8.1619E-03  2.2194E-03  
        147   3         7.9605E+07  4.9046E+08 -6.5546E+07 -9.6477E-04  6.6655E-03 -2.4346E-03  
        147   4         6.9075E+07  4.7708E+08 -5.9237E+07 -1.0579E-03  6.5194E-03 -2.2002E-03  
        148   1        -1.1821E+08  3.7343E+08 -1.0664E+07 -3.2892E-03  5.8414E-03 -3.9609E-04  
        148   2        -1.2236E+08  3.6603E+08 -7.6555E+06 -3.3167E-03  5.7534E-03 -2.8435E-04  
        148   3        -8.6347E+07  3.2187E+08 -5.7186E+07 -2.6130E-03  4.9682E-03 -2.1240E-03  
        148   4        -8.9907E+07  3.1565E+08 -5.4574E+07 -2.6372E-03  4.8947E-03 -2.0270E-03  
        149   1        -1.0444E+08  2.9681E+08 -7.7817E+07 -2.7640E-03  4.6877E-03 -2.8903E-03  
        149   2        -1.0183E+08  2.9649E+08 -7.8411E+07 -2.7254E-03  4.6720E-03 -2.9124E-03  
        149   3        -1.4986E+08  2.5246E+08 -1.1150E+08 -3.2228E-03  4.2488E-03 -4.1415E-03  
        149   4        -1.4671E+08  2.5215E+08 -1.1215E+08 -3.1766E-03  4.2309E-03 -4.1656E-03  
        150   1        -1.9523E+08  9.5986E+07 -8.9137E+07 -3.2003E-03  2.2079E-03 -3.3108E-03  
        150   2        -1.8484E+08  1.0399E+08 -9.3979E+07 -3.0862E-03  2.2778E-03 -3.4907E-03  
        150   3        -2.2579E+08  2.9901E+08 -1.8241E+08 -4.5071E-03  5.2393E-03 -6.7752E-03  
        150   4        -2.1346E+08  3.0798E+08 -1.8790E+08 -4.3693E-03  5.3145E-03 -6.9793E-03  
        151   1        -4.2807E+08 -2.1036E+08  3.8832E+07 -5.2137E-03 -1.1706E-03  1.4423E-03  
        151   2        -4.0387E+08 -1.9475E+08  2.8998E+07 -4.9349E-03 -1.0513E-03  1.0771E-03  
        151   3        -4.1623E+08  3.9650E+08 -2.9290E+08 -7.6455E-03  7.4482E-03 -1.0879E-02  
        151   4        -3.8850E+08  4.1216E+08 -3.0295E+08 -7.3164E-03  7.5530E-03 -1.1252E-02  
        152   1        -6.6191E+08 -3.6988E+08  2.6659E+08 -7.8706E-03 -2.4472E-03  9.9019E-03  
        152   2        -6.2227E+08 -3.5529E+08  2.5889E+08 -7.3669E-03 -2.4087E-03  9.6158E-03  
        152   3        -6.4552E+08  6.3289E+07 -4.7691E+08 -9.4930E-03  3.6707E-03 -1.7714E-02  
        152   4        -6.0365E+08  7.6660E+07 -4.8152E+08 -8.9521E-03  3.6822E-03 -1.7885E-02  
        153   1        -1.6130E+07  1.0238E+09  4.1619E+08 -4.6181E-03  1.4695E-02  1.5459E-02  
        153   2        -2.9000E+07  9.8343E+08  4.2057E+08 -4.6290E-03  1.4173E-02  1.5621E-02  
        153   3         3.9774E+08  1.0411E+09 -3.0720E+08  1.2202E-03  1.3168E-02 -1.1410E-02  
        153   4         3.8372E+08  1.0029E+09 -2.9982E+08  1.1838E-03  1.2682E-02 -1.1136E-02  
        154   1        -3.0852E+08  7.5452E+08  1.9382E+08 -7.6411E-03  1.2101E-02  7.1989E-03  
        154   2        -3.2451E+08  7.2578E+08  2.0406E+08 -7.7463E-03  1.1759E-02  7.5796E-03  
        154   3         3.0636E+08  7.6609E+08 -1.5743E+08  1.0934E-03  9.6312E-03 -5.8475E-03  
        154   4         2.9043E+08  7.4099E+08 -1.4736E+08  9.7340E-04  9.3408E-03 -5.4734E-03  
        155   1        -1.9616E+08  5.0237E+08  6.5110E+07 -4.9553E-03  8.0174E-03  2.4184E-03  
        155   2        -2.0761E+08  4.8685E+08  7.2087E+07 -5.0523E-03  7.8447E-03  2.6775E-03  
        155   3         7.1154E+07  4.7063E+08 -5.3263E+07 -1.0005E-03  6.4184E-03 -1.9784E-03  
        155   4         6.0911E+07  4.5754E+08 -4.7110E+07 -1.0907E-03  6.2753E-03 -1.7498E-03  
        156   1        -1.1888E+08  3.6319E+08 -3.9374E+06 -3.2548E-03  5.6979E-03 -1.4624E-04  
        156   2        -1.2299E+08  3.5575E+08 -9.3064E+05 -3.2817E-03  5.6092E-03 -3.4567E-05  
        156   3        -8.7304E+07  3.1249E+08 -5.2035E+07 -2.5865E-03  4.8383E-03 -1.9327E-03  
        156   4        -9.0835E+07  3.0624E+08 -4.9422E+07 -2.6101E-03  4.7642E-03 -1.8357E-03  
        157   1        -9.8584E+07  2.9554E+08 -7.7647E+07 -2.6749E-03  4.6445E-03 -2.8840E-03  
        157   2        -9.5875E+07  2.9524E+08 -7.8271E+07 -2.6349E-03  4.6285E-03 -2.9072E-03  
        157   3        -1.4465E+08  2.5016E+08 -1.1268E+08 -3.1385E-03  4.1936E-03 -4.1852E-03  
        157   4        -1.4139E+08  2.4987E+08 -1.1336E+08 -3.0907E-03  4.1755E-03 -4.2106E-03  
        158   1        -1.7861E+08  1.0499E+08 -9.7761E+07 -3.0016E-03  2.2654E-03 -3.6311E-03  
        158   2        -1.6849E+08  1.1271E+08 -1.0245E+08 -2.8900E-03  2.3323E-03 -3.8054E-03  
        158   3        -2.0684E+08  3.0174E+08 -1.9121E+08 -4.2480E-03  5.1970E-03 -7.1021E-03  
        158   4        -1.9483E+08  3.1038E+08 -1.9652E+08 -4.1134E-03  5.2689E-03 -7.2993E-03  
        159   1        -3.9035E+08 -2.0229E+08  2.4315E+07 -4.7095E-03 -1.2169E-03  9.0315E-04  
        159   2        -3.6655E+08 -1.8693E+08  1.4641E+07 -4.4353E-03 -1.0994E-03  5.4381E-04  
        159   3        -3.7250E+08  4.0161E+08 -3.0609E+08 -7.0426E-03  7.3337E-03 -1.1369E-02  
        159   4        -3.4526E+08  4.1699E+08 -3.1596E+08 -6.7194E-03  7.4367E-03 -1.1736E-02  
        160   1        -5.9984E+08 -3.6873E+08  2.5816E+08 -6.9889E-03 -2.6968E-03  9.5888E-03  
        160   2        -5.6062E+08 -3.5429E+08  2.5053E+08 -6.4904E-03 -2.6587E-03  9.3056E-03  
        160   3        -5.7928E+08  6.5269E+07 -4.8377E+08 -8.5552E-03  3.4150E-03 -1.7969E-02  
        160   4        -5.3788E+08  7.8490E+07 -4.8833E+08 -8.0204E-03  3.4265E-03 -1.8138E-02  
        161   1        -1.6433E+07  9.6043E+08  4.2271E+08 -4.3509E-03  1.3791E-02  1.5701E-02  
        161   2        -2.9162E+07  9.2053E+08  4.2706E+08 -4.3617E-03  1.3275E-02  1.5862E-02  
        161   3         3.9863E+08  9.8182E+08 -2.9917E+08  1.4869E-03  1.2318E-02 -1.1112E-02  
        161   4         3.8475E+08  9.4399E+08 -2.9186E+08  1.4508E-03  1.1837E-02 -1.0841E-02  
        162   1        -3.1246E+08  7.0967E+08  2.0749E+08 -7.5051E-03  1.1477E-02  7.7066E-03  
        162   2        -3.2818E+08  6.8141E+08  2.1757E+08 -7.6086E-03  1.1141E-02  8.0810E-03  
        162   3         3.0079E+08  7.2772E+08 -1.4250E+08  1.1782E-03  9.1069E-03 -5.2929E-03  
        162   4         2.8510E+08  7.0300E+08 -1.3258E+08  1.0599E-03  8.8210E-03 -4.9244E-03  
        163   1        -1.9931E+08  4.7902E+08  7.6669E+07 -4.9002E-03  7.6973E-03  2.8477E-03  
        163   2        -2.1044E+08  4.6384E+08  8.3467E+07 -4.9942E-03  7.5282E-03  3.1002E-03  
        163   3         6.3530E+07  4.5090E+08 -4.1903E+07 -1.0249E-03  6.1692E-03 -1.5564E-03  
        163   4         5.3559E+07  4.3809E+08 -3.5899E+07 -1.1124E-03  6.0289E-03 -1.3334E-03  
        164   1        -1.1894E+08  3.5240E+08  2.2713E+06 -3.2095E-03  5.5441E-03  8.4362E-05  
        164   2        -1.2303E+08  3.4493E+08  5.2779E+06 -3.2359E-03  5.4548E-03  1.9604E-04  
        164   3        -8.7249E+07  3.0283E+08 -4.7245E+07 -2.5443E-03  4.7001E-03 -1.7548E-03  
        164   4        -9.0760E+07  2.9655E+08 -4.4629E+07 -2.5675E-03  4.6254E-03 -1.6576E-03  
        165   1        -9.2443E+07  2.9322E+08 -7.7224E+07 -2.5773E-03  4.5851E-03 -2.8683E-03  
        165   2        -8.9644E+07  2.9294E+08 -7.7879E+07 -2.5361E-03  4.5691E-03 -2.8926E-03  
        165   3        -1.3881E+08  2.4726E+08 -1.1343E+08 -3.0427E-03  4.1272E-03 -4.2131E-03  
        165   4        -1.3545E+08  2.4700E+08 -1.1415E+08 -2.9935E-03  4.1090E-03 -4.2398E-03  
        166   1        -1.6208E+08  1.1307E+08 -1.0547E+08 -2.8000E-03  2.3100E-03 -3.9176E-03  
        166   2        -1.5221E+08  1.2052E+08 -1.1002E+08 -2.6909E-03  2.3740E-03 -4.0865E-03  
        166   3        -1.8804E+08  3.0384E+08 -1.9902E+08 -3.9885E-03  5.1465E-03 -7.3922E-03  
        166   4        -1.7634E+08  3.1217E+08 -2.0416E+08 -3.8569E-03  5.2152E-03 -7.5831E-03  
        167   1        -3.5305E+08 -1.9449E+08  1.0754E+07 -4.2100E-03 -1.2654E-03  3.9945E-04  
        167   2        -3.2962E+08 -1.7937E+08  1.2336E+06 -3.9401E-03 -1.1498E-03  4.5821E-05  
        167   3        -3.2937E+08  4.0656E+08 -3.1837E+08 -6.4477E-03  7.2196E-03 -1.1825E-02  
        167   4        -3.0261E+08  4.2167E+08 -3.2807E+08 -6.1301E-03  7.3207E-03 -1.2185E-02  
        168   1        -5.3831E+08 -3.6739E+08  2.5029E+08 -6.1156E-03 -2.9414E-03  9.2963E-03  
        168   2        -4.9947E+08 -3.5309E+08  2.4273E+08 -5.6221E-03 -2.9036E-03  9.0158E-03  
        168   3        -5.1369E+08  6.7472E+07 -4.9041E+08 -7.6277E-03  3.1654E-03 -1.8215E-02  
        168   4        -4.7274E+08  8.0553E+07 -4.9493E+08 -7.0986E-03  3.1768E-03 -1.8383E-02  
        169   1        -1.6959E+07  8.9770E+08  4.2905E+08 -4.0895E-03  1.2897E-02  1.5936E-02  
        169   2        -2.9553E+07  8.5822E+08  4.3335E+08 -4.1003E-03  1.2387E-02  1.6096E-02  
        169   3         3.9931E+08  9.2308E+08 -2.9161E+08  1.7484E-03  1.1475E-02 -1.0831E-02  
        169   4         3.8557E+08  8.8562E+08 -2.8437E+08  1.7125E-03  1.0999E-02 -1.0562E-02  
        170   1        -3.1629E+08  6.6544E+08  2.2035E+08 -7.3703E-03  1.0862E-02  8.1845E-03  
        170   2        -3.3176E+08  6.3764E+08  2.3027E+08 -7.4722E-03  1.0531E-02  8.5530E-03  
        170   3         2.9539E+08  6.8976E+08 -1.2843E+08  1.2638E-03  8.5877E-03 -4.7702E-03  
        170   4         2.7992E+08  6.6541E+08 -1.1865E+08  1.1471E-03  8.3062E-03 -4.4070E-03  
        171   1        -2.0193E+08  4.5591E+08  8.7294E+07 -4.8386E-03  7.3784E-03  3.2424E-03  
        171   2        -2.1276E+08  4.4107E+08  9.3921E+07 -4.9297E-03  7.2128E-03  3.4885E-03  
        171   3         5.6693E+07  4.3130E+08 -3.1431E+07 -1.0385E-03  5.9184E-03 -1.1674E-03  
        171   4         4.6980E+07  4.1876E+08 -2.5569E+07 -1.1235E-03  5.7809E-03 -9.4971E-04  
        172   1        -1.1845E+08  3.4116E+08  7.9793E+06 -3.1543E-03  5.3814E-03  2.9638E-04  
        172   2        -1.2253E+08  3.3366E+08  1.0986E+07 -3.1804E-03  5.2917E-03  4.0805E-04  
        172   3        -8.6288E+07  2.9295E+08 -4.2795E+07 -2.4882E-03  4.5548E-03 -1.5895E-03  
        172   4        -8.9788E+07  2.8665E+08 -4.0177E+07 -2.5112E-03  4.4798E-03 -1.4923E-03  
        173   1        -8.6086E+07  2.8997E+08 -7.6563E+07 -2.4725E-03  4.5114E-03 -2.8438E-03  
        173   2        -8.3208E+07  2.8972E+08 -7.7247E+07 -2.4303E-03  4.4955E-03 -2.8692E-03  
        173   3        -1.3245E+08  2.4382E+08 -1.1377E+08 -2.9371E-03  4.0508E-03 -4.2258E-03  
        173   4        -1.2899E+08  2.4360E+08 -1.1452E+08 -2.8867E-03  4.0327E-03 -4.2536E-03  
        174   1        -1.4566E+08  1.2028E+08 -1.1231E+08 -2.5963E-03  2.3425E-03 -4.1714E-03  
        174   2        -1.3603E+08  1.2746E+08 -1.1672E+08 -2.4896E-03  2.4039E-03 -4.3352E-03  
        174   3        -1.6942E+08  3.0534E+08 -2.0587E+08 -3.7289E-03  5.0881E-03 -7.6467E-03  
        174   4        -1.5802E+08  3.1337E+08 -2.1085E+08 -3.6004E-03  5.1539E-03 -7.8315E-03  
        175   1        -3.1615E+08 -1.8697E+08 -1.8749E+06 -3.7151E-03 -1.3161E-03 -6.9639E-05  
        175   2        -2.9309E+08 -1.7209E+08 -1.1247E+07 -3.4495E-03 -1.2023E-03 -4.1775E-04  
        175   3        -2.8684E+08  4.1135E+08 -3.2977E+08 -5.8606E-03  7.1057E-03 -1.2249E-02  
        175   4        -2.6054E+08  4.2619E+08 -3.3930E+08 -5.5486E-03  7.2051E-03 -1.2603E-02  
        176   1        -4.7729E+08 -3.6587E+08  2.4296E+08 -5.2504E-03 -3.1812E-03  9.0241E-03  
        176   2        -4.3882E+08 -3.5171E+08  2.3547E+08 -4.7615E-03 -3.1437E-03  8.7460E-03  
        176   3        -4.4873E+08  6.9883E+07 -4.9685E+08 -6.7099E-03  2.9215E-03 -1.8454E-02  
[...]
       251      -8.0462E-03   1.187       0.000       0.000     
       252        0.000       1.309      1.8642E+07   0.000     
       253       -1.187       0.000       0.000     -4.5665E+07 
       254       -1.074      2.9940E-02   0.000       0.000     
       255      -0.8180      8.3156E-02   0.000       0.000     
       256      -0.5104      0.1622       0.000       0.000     
       257      -0.2023      0.2652       0.000       0.000     
       258      -0.1071      0.5827       0.000       0.000     
       259      -3.9694E-02  0.9077       0.000       0.000     
       260      -4.5797E-03   1.185       0.000       0.000     
       261        0.000       1.309      1.4429E+07   0.000     
       262       -1.187       0.000       0.000     -4.1686E+07 
       263       -1.073      2.6750E-02   0.000       0.000     
       264      -0.8133      7.7221E-02   0.000       0.000     
       265      -0.5022      0.1535       0.000       0.000     
       266      -0.1903      0.2532       0.000       0.000     
       267      -9.8215E-02  0.5743       0.000       0.000     
       268      -3.3395E-02  0.9027       0.000       0.000     
       269      -1.0832E-03   1.184       0.000       0.000     
       270        0.000       1.309      1.0236E+07   0.000     
       271       -1.187       0.000       0.000     -3.7726E+07 
       272       -1.072      2.3533E-02   0.000       0.000     
       273      -0.8087      7.1258E-02   0.000       0.000     
       274      -0.4939      0.1448       0.000       0.000     
       275      -0.1783      0.2413       0.000       0.000     
       276      -8.9259E-02  0.5658       0.000       0.000     
       277      -2.7065E-02  0.8977       0.000       0.000     
       278       2.4449E-03   1.182       0.000       0.000     
       279        0.000       1.309      6.0591E+06   0.000     
       280       -1.188       0.000       0.000     -3.3784E+07 
       281       -1.071      2.0287E-02   0.000       0.000     
       282      -0.8040      6.5266E-02   0.000       0.000     
       283      -0.4856      0.1361       0.000       0.000     
       284      -0.1663      0.2293       0.000       0.000     
       285      -8.0276E-02  0.5573       0.000       0.000     
       286      -2.0702E-02  0.8927       0.000       0.000     
       287       6.0059E-03   1.181       0.000       0.000     
       288        0.000       1.310      1.8977E+06   0.000     
       289       -1.188       0.000       0.000     -2.9858E+07 
       290       -1.069      1.7011E-02   0.000       0.000     
       291      -0.7993      5.9242E-02   0.000       0.000     
       292      -0.4773      0.1273       0.000       0.000     
       293      -0.1542      0.2173       0.000       0.000     
       294      -7.1266E-02  0.5488       0.000       0.000     
       295      -1.4303E-02  0.8877       0.000       0.000     
       296       9.6010E-03   1.179       0.000       0.000     
       297        0.000       1.310     -2.2505E+06   0.000     
       298       -1.188       0.000       0.000     -2.5945E+07 
       299       -1.068      1.3704E-02   0.000       0.000     
       300      -0.7945      5.3186E-02   0.000       0.000     
       301      -0.4690      0.1185       0.000       0.000     
       302      -0.1421      0.2052       0.000       0.000     
       303      -6.2225E-02  0.5402       0.000       0.000     
       304      -7.8674E-03  0.8827       0.000       0.000     
       305       1.3232E-02   1.178       0.000       0.000     
       306        0.000       1.310     -6.3874E+06   0.000     
       307       -1.188       0.000       0.000     -2.2046E+07 
       308       -1.066      1.0365E-02   0.000       0.000     
       309      -0.7898      4.7096E-02   0.000       0.000     
       310      -0.4606      0.1097       0.000       0.000     
       311      -0.1299      0.1932       0.000       0.000     
       312      -5.3155E-02  0.5317       0.000       0.000     
       313      -1.3938E-03  0.8776       0.000       0.000     
       314       1.6899E-02   1.176       0.000       0.000     
       315        0.000       1.310     -1.0515E+07   0.000     
       316       -1.189       0.000       0.000     -1.8157E+07 
       317       -1.065      6.9936E-03   0.000       0.000     
       318      -0.7850      4.0970E-02   0.000       0.000     
       319      -0.4523      0.1009       0.000       0.000     
       320      -0.1178      0.1811       0.000       0.000     
       321      -4.4053E-02  0.5232       0.000       0.000     
       322       5.1195E-03  0.8725       0.000       0.000     
       323       2.0605E-02   1.175       0.000       0.000     
       324        0.000       1.310     -1.4635E+07   0.000     
       325       -1.189       0.000       0.000     -1.4278E+07 
       326       -1.064      3.5873E-03   0.000       0.000     
       327      -0.7802      3.4809E-02   0.000       0.000     
       328      -0.4439      9.1990E-02   0.000       0.000     
       329      -0.1056      0.1690       0.000       0.000     
       330      -3.4919E-02  0.5146       0.000       0.000     
       331       1.1674E-02  0.8674       0.000       0.000     
       332       2.4350E-02   1.173       0.000       0.000     
       333        0.000       1.310     -1.8749E+07   0.000     
       334       -1.189       0.000       0.000     -1.0407E+07 
       335       -1.062      1.4564E-04   0.000       0.000     
       336      -0.7753      2.8609E-02   0.000       0.000     
       337      -0.4355      8.3087E-02   0.000       0.000     
       338      -9.3381E-02  0.1569       0.000       0.000     
       339      -2.5753E-02  0.5060       0.000       0.000     
       340       1.8271E-02  0.8622       0.000       0.000     
       341       2.8137E-02   1.171       0.000       0.000     
       342        0.000       1.311     -2.2858E+07   0.000     
       343       -1.189       0.000       0.000     -6.5423E+06 
       344       -1.061     -3.3327E-03   0.000       0.000     
       345      -0.7705      2.2371E-02   0.000       0.000     
       346      -0.4271      7.4154E-02   0.000       0.000     
       347      -8.1152E-02  0.1447       0.000       0.000     
       348      -1.6554E-02  0.4974       0.000       0.000     
       349       2.4911E-02  0.8571       0.000       0.000     
       350       3.1965E-02   1.170       0.000       0.000     
       351        0.000       1.311     -2.6966E+07   0.000     
       352       -1.189       0.000       0.000     -2.6822E+06 
       353       -1.059     -6.8487E-03   0.000       0.000     
       354      -0.7656      1.6092E-02   0.000       0.000     
       355      -0.4186      6.5190E-02   0.000       0.000     
       356      -6.8901E-02  0.1326       0.000       0.000     
       357      -7.3229E-03  0.4888       0.000       0.000     
       358       3.1596E-02  0.8519       0.000       0.000     
       359       3.5838E-02   1.168       0.000       0.000     
       360        0.000       1.311     -3.1073E+07   0.000     
       361       -1.190       0.000       0.000      1.1745E+06 
       362       -1.058     -1.0404E-02   0.000       0.000     
       363      -0.7607      9.7730E-03   0.000       0.000     
       364      -0.4102      5.6195E-02   0.000       0.000     
       365      -5.6630E-02  0.1204       0.000       0.000     
       366       1.9409E-03  0.4802       0.000       0.000     
       367       3.8326E-02  0.8467       0.000       0.000     
       368       3.9756E-02   1.166       0.000       0.000     
       369        0.000       1.311     -3.5181E+07   0.000     
       370       -1.190       0.000       0.000      5.0293E+06 
       371       -1.056     -1.3999E-02   0.000       0.000     
       372      -0.7557      3.4118E-03   0.000       0.000     
       373      -0.4017      4.7168E-02   0.000       0.000     
       374      -4.4342E-02  0.1082       0.000       0.000     
       375       1.1237E-02  0.4716       0.000       0.000     
       376       4.5104E-02  0.8415       0.000       0.000     
       377       4.3721E-02   1.165       0.000       0.000     
       378        0.000       1.311     -3.9292E+07   0.000     
       379       -1.190       0.000       0.000      8.8838E+06 
       380       -1.055     -1.7636E-02   0.000       0.000     
       381      -0.7508     -2.9922E-03   0.000       0.000     
       382      -0.3932      3.8111E-02   0.000       0.000     
       383      -3.2036E-02  9.6050E-02   0.000       0.000     
       384       2.0565E-02  0.4630       0.000       0.000     
       385       5.1929E-02  0.8363       0.000       0.000     
       386       4.7733E-02   1.163       0.000       0.000     
       387        0.000       1.311     -4.3407E+07   0.000     
       388       -1.190       0.000       0.000      1.2739E+07 
       389       -1.053     -2.1315E-02   0.000       0.000     
       390      -0.7458     -9.4399E-03   0.000       0.000     
       391      -0.3847      2.9022E-02   0.000       0.000     
       392      -1.9716E-02  8.3847E-02   0.000       0.000     
       393       2.9924E-02  0.4543       0.000       0.000     
       394       5.8803E-02  0.8310       0.000       0.000     
       395       5.1796E-02   1.161       0.000       0.000     
       396        0.000       1.311     -4.7529E+07   0.000     
       397       -1.190       0.000       0.000      1.6597E+07 
       398       -1.052     -2.5038E-02   0.000       0.000     
       399      -0.7408     -1.5932E-02   0.000       0.000     
       400      -0.3762      1.9903E-02   0.000       0.000     
       401      -7.3816E-03  7.1633E-02   0.000       0.000     
       402       3.9314E-02  0.4457       0.000       0.000     
       403       6.5727E-02  0.8257       0.000       0.000     
       404       5.5909E-02   1.159       0.000       0.000     
       405        0.000       1.311     -5.1658E+07   0.000     
       406       -1.190       0.000       0.000      2.0459E+07 
       407       -1.050     -2.8806E-02   0.000       0.000     
       408      -0.7358     -2.2469E-02   0.000       0.000     
       409      -0.3676      1.0754E-02   0.000       0.000     
       410       4.9646E-03  5.9411E-02   0.000       0.000     
       411       4.8734E-02  0.4370       0.000       0.000     
       412       7.2701E-02  0.8204       0.000       0.000     
       413       6.0075E-02   1.158       0.000       0.000     
       414        0.000       1.311     -5.5797E+07   0.000     
       415       -1.190       0.000       0.000      2.4327E+07 
       416       -1.048     -3.2620E-02   0.000       0.000     
       417      -0.7308     -2.9053E-02   0.000       0.000     
       418      -0.3591      1.5753E-03   0.000       0.000     
       419       1.7321E-02  4.7180E-02   0.000       0.000     
       420       5.8182E-02  0.4283       0.000       0.000     
       421       7.9726E-02  0.8151       0.000       0.000     
       422       6.4296E-02   1.156       0.000       0.000     
       423        0.000       1.311     -5.9947E+07   0.000     
       424       -1.190       0.000       0.000      2.8201E+07 
       425       -1.047     -3.6482E-02   0.000       0.000     
       426      -0.7257     -3.5682E-02   0.000       0.000     
       427      -0.3505     -7.6322E-03   0.000       0.000     
       428       2.9687E-02  3.4943E-02   0.000       0.000     
       429       6.7658E-02  0.4197       0.000       0.000     
       430       8.6802E-02  0.8098       0.000       0.000     
       431       6.8572E-02   1.154       0.000       0.000     
       432        0.000       1.311     -6.4110E+07   0.000     
       433       -1.190       0.000       0.000      3.2084E+07 
       434       -1.045     -4.0393E-02   0.000       0.000     
       435      -0.7206     -4.2359E-02   0.000       0.000     
       436      -0.3419     -1.6868E-02   0.000       0.000     
       437       4.2061E-02  2.2701E-02   0.000       0.000     
       438       7.7161E-02  0.4110       0.000       0.000     
       439       9.3930E-02  0.8045       0.000       0.000     
       440       7.2905E-02   1.152       0.000       0.000     
       441        0.000       1.311     -6.8288E+07   0.000     
       442       -1.190       0.000       0.000      3.5976E+07 
       443       -1.043     -4.4355E-02   0.000       0.000     
       444      -0.7155     -4.9083E-02   0.000       0.000     
       445      -0.3333     -2.6130E-02   0.000       0.000     
       446       5.4441E-02  1.0454E-02   0.000       0.000     
       447       8.6689E-02  0.4023       0.000       0.000     
       448       0.1011      0.7991       0.000       0.000     
       449       7.7297E-02   1.150       0.000       0.000     
       450        0.000       1.311     -7.2482E+07   0.000     
       451       -1.190       0.000       0.000      3.9879E+07 
       452       -1.042     -4.8368E-02   0.000       0.000     
       453      -0.7104     -5.5854E-02   0.000       0.000     
       454      -0.3247     -3.5418E-02   0.000       0.000     
       455       6.6826E-02 -1.7969E-03   0.000       0.000     
       456       9.6240E-02  0.3936       0.000       0.000     
       457       0.1083      0.7937       0.000       0.000     
       458       8.1750E-02   1.148       0.000       0.000     
       459        0.000       1.311     -7.6693E+07   0.000     
       460       -1.190       0.000       0.000      4.3796E+07 
       461       -1.040     -5.2434E-02   0.000       0.000     
       462      -0.7053     -6.2674E-02   0.000       0.000     
       463      -0.3161     -4.4732E-02   0.000       0.000     
       464       7.9214E-02 -1.4050E-02   0.000       0.000     
       465       0.1058      0.3849       0.000       0.000     
       466       0.1156      0.7883       0.000       0.000     
       467       8.6265E-02   1.147       0.000       0.000     
       468        0.000       1.311     -8.0925E+07   0.000     
       469       -1.190       0.000       0.000      4.7726E+07 
       470       -1.038     -5.6554E-02   0.000       0.000     
       471      -0.7001     -6.9543E-02   0.000       0.000     
       472      -0.3074     -5.4069E-02   0.000       0.000     
       473       9.1606E-02 -2.6304E-02   0.000       0.000     
       474       0.1154      0.3762       0.000       0.000     
       475       0.1230      0.7829       0.000       0.000     
       476       9.0843E-02   1.145       0.000       0.000     
       477        0.000       1.311     -8.5177E+07   0.000     
       478       -1.190       0.000       0.000      5.1671E+07 
       479       -1.036     -6.0730E-02   0.000       0.000     
       480      -0.6949     -7.6459E-02   0.000       0.000     
       481      -0.2988     -6.3428E-02   0.000       0.000     
       482       0.1040     -3.8559E-02   0.000       0.000     
       483       0.1250      0.3675       0.000       0.000     
       484       0.1304      0.7775       0.000       0.000     
       485       9.5487E-02   1.143       0.000       0.000     
       486        0.000       1.311     -8.9453E+07   0.000     
       487       -1.190       0.000       0.000      5.5634E+07 
       488       -1.035     -6.4963E-02   0.000       0.000     
       489      -0.6897     -8.3425E-02   0.000       0.000     
       490      -0.2902     -7.2809E-02   0.000       0.000     
       491       0.1164     -5.0814E-02   0.000       0.000     
       492       0.1346      0.3588       0.000       0.000     
       493       0.1378      0.7721       0.000       0.000     
       494       0.1002       1.141       0.000       0.000     
       495        0.000       1.311     -9.3753E+07   0.000     
       496       -1.190       0.000       0.000      5.9615E+07 
       497       -1.033     -6.9255E-02   0.000       0.000     
       498      -0.6845     -9.0439E-02   0.000       0.000     
       499      -0.2815     -8.2209E-02   0.000       0.000     
       500       0.1288     -6.3068E-02   0.000       0.000     
       501       0.1443      0.3501       0.000       0.000     
       502       0.1453      0.7666       0.000       0.000     
       503       0.1050       1.139       0.000       0.000     
       504        0.000       1.311     -9.8080E+07   0.000     
       505       -1.190       0.000       0.000      6.3616E+07 
       506       -1.031     -7.3607E-02   0.000       0.000     
       507      -0.6793     -9.7502E-02   0.000       0.000     
       508      -0.2728     -9.1627E-02   0.000       0.000     
       509       0.1412     -7.5320E-02   0.000       0.000     
       510       0.1539      0.3414       0.000       0.000     
       511       0.1529      0.7612       0.000       0.000     
       512       0.1098       1.137       0.000       0.000     
       513        0.000       1.311     -1.0243E+08   0.000     
       514       -1.190       0.000       0.000      6.7639E+07 
       515       -1.029     -7.8021E-02   0.000       0.000     
       516      -0.6741     -0.1046       0.000       0.000     
       517      -0.2642     -0.1011       0.000       0.000     
       518       0.1536     -8.7571E-02   0.000       0.000     
       519       0.1636      0.3327       0.000       0.000     
       520       0.1605      0.7557       0.000       0.000     
       521       0.1148       1.135       0.000       0.000     
       522        0.000       1.310     -1.0682E+08   0.000     
       523       -1.190       0.000       0.000      7.1684E+07 
       524       -1.027     -8.2497E-02   0.000       0.000     
       525      -0.6688     -0.1118       0.000       0.000     
       526      -0.2555     -0.1105       0.000       0.000     
       527       0.1660     -9.9820E-02   0.000       0.000     
       528       0.1733      0.3240       0.000       0.000     
       529       0.1681      0.7502       0.000       0.000     
       530       0.1198       1.133       0.000       0.000     
       531        0.000       1.310     -1.1124E+08   0.000     
       532       -1.190       0.000       0.000      7.5754E+07 
       533       -1.025     -8.7039E-02   0.000       0.000     
       534      -0.6635     -0.1190       0.000       0.000     
       535      -0.2468     -0.1200       0.000       0.000     
       536       0.1783     -0.1121       0.000       0.000     
       537       0.1830      0.3153       0.000       0.000     
       538       0.1758      0.7447       0.000       0.000     
       539       0.1248       1.131       0.000       0.000     
       540        0.000       1.310     -1.1569E+08   0.000     
       541       -1.190       0.000       0.000      9.5663E+08 
       542       -1.024     -9.1646E-02   0.000       0.000     
       543      -0.6583     -0.1262       0.000       0.000     
       544      -0.2382     -0.1294       0.000       0.000     
       545       0.1907     -0.1243       0.000       0.000     
       546       0.1927      0.3066       0.000       0.000     
       547       0.1836      0.7392       0.000       0.000     
       548       0.1300       1.129       0.000       0.000     
       549        0.000       1.310     -1.0792E+09   0.000     

 MAXIMUM         0.1927       1.311      5.7676E+08  9.5663E+08
 AT NODE               546         432           9         541

 MINIMUM         -1.190     -0.1294     -1.0792E+09 -5.6486E+08
 AT NODE               460         544         549           1


          THE ANALYSIS HAS BEEN COMPLETED



                              ANALYSIS COMPLETE



     JOB TIME SUMMARY
       USER TIME (SEC)      =  0.30000    
       SYSTEM TIME (SEC)    =  0.10000    
       TOTAL CPU TIME (SEC) =  0.40000    
       WALLCLOCK TIME (SEC) =          1
