1

  ABAQUS VERSION 6.4-1                                     DATE 07-Apr-2008   TIME 17:24:44        PAGE     1
 





    AAAAAA     BBBBBBBBB      AAAAAA      QQQQQQQQ    U        U    SSSSSSSS
   A      A    B        B    A      A    Q        Q   U        U   S
  A        A   B        B   A        A   Q        Q   U        U   S
  A        A   B        B   A        A   Q        Q   U        U   S
  AAAAAAAAAA   BBBBBBBBB    AAAAAAAAAA   Q        Q   U        U    SSSSSSSS
  A        A   B        B   A        A   Q    Q   Q   U        U            S
  A        A   B        B   A        A   Q     Q  Q   U        U            S
  A        A   B        B   A        A   Q      Q Q   U        U            S
  A        A   BBBBBBBBB    A        A    QQQQQQQQ     UUUUUUUU     SSSSSSSS
 



                      This program has been developed by
 
                                  ABAQUS, Inc.
                                1080 Main Street
                             Pawtucket, R.I. 02860
 


                   Available for internal use at University of Virginia. 
                   Support of your usage is not included in the license
                   price.  To purchase support, or send information to ABAQUS, Inc.
                   about a suspected error, please follow the procedures
                   described in the ABAQUS academic support instructions
                   document. A copy of this document has been sent to the
                   designated user at your site. Additional copies can be
                   obtained by contacting ABAQUS, Inc. or your local ABAQUS
                   representative.

                   Should you have any questions concerning the terms of
                   this academic license, please contact the designated
                   user at your university, Brad Sayler
 
                        On machine d107-14 
                        you are authorized to run
                        ABAQUS/Standard until 31-Dec-2008

                        Your site id is: 08UVA_X 


 
                    For assistance or any other information contact

                           ABAQUS, INC.
                           1080 Main Street
                           Pawtucket, RI 02860-4847
                           U.S.A.
                           Tel: (1) 401 727 4200
                           Fax: (1) 401 727 4208
                           E-mail: info@abaqus.com
                           Web: http://www.abaqus.com
                           Technical support: support@abaqus.com 


                * * * * * * * * * * * * * * * * * * * * * * * * * * * * * * 
                *                                                         * 
                *                   *****************                     * 
                *                   *  N O T I C E  *                     * 
                *                   *****************                     * 
                *                                                         * 
                *                                                         * 
                *                 ABAQUS VERSION 6.4-1                    * 
                *                                                         * 
                *          BUILD ID: 2003_09_29-11.18.28 46457            * 
                *                                                         * 
                *                                                         * 
                *  Please make sure you are using version 6.4 manuals     * 
                *  plus the notes accompanying this release.              * 
                *                                                         * 
                *                                                         * 
                *   This program may not be used for commercial purposes  * 
                *           without payment of a monthly charge.          * 
                *                                                         * 
                * * * * * * * * * * * * * * * * * * * * * * * * * * * * * * 


 



     PROCESSING PART, INSTANCE, AND ASSEMBLY INFORMATION
   *******************************************************


     END PROCESSING PART, INSTANCE, AND ASSEMBLY INFORMATION
   ***********************************************************




     OPTIONS BEING PROCESSED
   ***************************


  *Heading
          2-D plate with hole: 4-noded elements                                                                                                                                                                                                                           
  *NODE
  *NODE,NSET=N1
  *NODE,NSET=N2
  *NODE,NSET=N3
  *NODE,NSET=N4
  *NODE,NSET=N5
  *NGEN,NSET=ARC1,LINE=C
  *NGEN,NSET=ROW1
  *NGEN,NSET=ROW1
  *NFILL,NSET=ALL, BIAS= 1.000
  *ELEMENT, ELSET=ALL, TYPE=CPS4
  *ELGEN, ELSET=ALL
  *ELSET,ELSET=TOP,GENERATE
  *NSET, NSET=YAXIS,GENERATE
  *NSET, NSET=XAXIS,GENERATE
  *MATERIAL,NAME=ALUM
  *ELASTIC
  *SOLID SECTION, ELSET=ALL, MAT=ALUM
  *BOUNDARY
  *SOLID SECTION, ELSET=ALL, MAT=ALUM
  *STEP
  *STEP
  *STEP
  *STATIC
  *BOUNDARY
  *DLOAD
  *EL PRINT
  *END STEP
  *STEP
  *STATIC
  *BOUNDARY
  *NODE PRINT
  *END STEP
1

   ABAQUS VERSION 6.4-1                                 DATE 07-Apr-2008       TIME 17:24:45        PAGE    2
   For use at None under academic license from ABAQUS, Inc.                                                                        

     2-D plate with hole: 4-noded elements                                           



                            P R O B L E M   S I Z E


          NUMBER OF ELEMENTS IS                                   640
          NUMBER OF NODES IS                                      729
          NUMBER OF NODES DEFINED BY THE USER                     729
          TOTAL NUMBER OF VARIABLES IN THE MODEL                 1458
          (DEGREES OF FREEDOM PLUS ANY LAGRANGE MULTIPLIER VARIABLES)



                              END OF USER INPUT PROCESSING



     JOB TIME SUMMARY
       USER TIME (SEC)      =  0.30000    
       SYSTEM TIME (SEC)    =  0.10000    
       TOTAL CPU TIME (SEC) =  0.40000    
       WALLCLOCK TIME (SEC) =          1
1

   ABAQUS VERSION 6.4-1                                     DATE 07-Apr-2008   TIME 17:24:46        PAGE    1
   For use at None under academic license from ABAQUS, Inc.                                                                        

     2-D plate with hole: 4-noded elements                                                     STEP    1  INCREMENT    1
                                                                                          TIME COMPLETED IN THIS STEP   0.00    


                        S T E P       1     S T A T I C   A N A L Y S I S


                                                                                          

     AUTOMATIC TIME CONTROL WITH -
          A SUGGESTED INITIAL TIME INCREMENT OF                 1.00    
          AND A TOTAL TIME PERIOD OF                            1.00    
          THE MINIMUM TIME INCREMENT ALLOWED IS                1.000E-06
          THE MAXIMUM TIME INCREMENT ALLOWED IS                 1.00    

     LINEAR EQUATION SOLVER TYPE         DIRECT SPARSE
  
  
  
                   M E M O R Y   A N D   D I S K   E S T I M A T E
  
  
           SUMMARY FOR CURRENT NODE ORDERING
          (NOTE THAT IF NODE ORDERING CHANGES THE SIZE ESTIMATES FOR THE STEPS WILL CHANGE)
  
  
           STEP   MAXIMUM DOF     FLOATING PT    MINIMUM MEMORY      MEMORY TO      REQUIRED DISKSPACE
                  WAVEFRONT       OPERATIONS       REQUIRED        MINIMIZE I/O
                                PER ITERATION     (MBYTES)           (MBYTES)          (KBYTES)
  
             1          68        1.33E+006         14.85              14.85            569.74
          ----    ---------      ------------    -------------     -------------      -------------
           MAX          68        1.33E+006         14.85              14.85            569.74
  
  
          THE TABLE ABOVE PROVIDES A STEP BY STEP SUMMARY OF SOME BASIC SIZING INFORMATION
          FOR THE PROBLEM. SOME FURTHER DESCRIPTION OF THE PARAMETERS GIVEN FOLLOWS:
  
          (1) MAXIMUM DOF WAVEFRONT - SIZE OF THE BIGGEST FRONT IN THE EQUATION SOLVER.
              PROVIDES A BASIC SIZING OF THE MOST MEMORY INTENSIVE SEGMENT OF SOLVER.
          (2) FLOATING POINT OPERATIONS PER ITERATION - MEASURE OF THE NUMBER OF FLOATING
              POINT OPERATIONS REQUIRED FOR A SINGLE SOLVER PASS. ON A GIVEN PLATFORM
              THE TIME REQUIRED FOR A SOLVER PASS WILL BE ROUGHLY A LINEAR FUNCTION
              OF THIS VALUE.
              NOTE - EXCEPT FOR THE FIRST STEP, THE VALUE IN THIS TABLE DOES NOT INCLUDE
                     ADDITIONAL FLOATING POINT OPERATIONS THAT ARE REQUIRED IN MULTIPLE LOAD
                     CASE STEPS WHEN CONSTRAINTS CHANGE FROM LOAD CASE TO LOAD CASE.  THIS
                     SITUATION CAUSES A REORDERING TO BE PERFORMED, AT WHICH TIME AN UPPER
                     BOUND ON THE NUMBER OF ADDITIONAL FLOATING POINT OPERATIONS WILL BE
                     CALCULATED AND INCLUDED UNDER THE ESTIMATE SUMMARIES FOR THE RELEVANT
                     STEPS (SEE NOTE BELOW ON REORDERING).
          (3) MINIMUM MEMORY REQUIRED - MINIMUM POSSIBLE MEMORY VALUE FOR standard_memory
              THAT ENABLES ABAQUS TO SOLVE THE PROBLEM. USE OF MEMORY WILL BE MINIMIZED BY
              WRITING AS MUCH INFORMATION AS POSSIBLE TO DISK WHICH WILL INCREASE I/O TIME.
          (4) MEMORY TO MINIMIZE I/O - VALUE OF standard_memory THAT ALLOWS ABAQUS TO KEEP
              ALL SIGNIFICANT SCRATCH FILES IN MEMORY. THIS WILL MINIMIZE I/O TIME FOR THE USER
              WITH ACCESS TO A LARGE AMOUNT OF MEMORY.
          (5) REQUIRED DISKSPACE - AMOUNT OF DISK REQUIRED FOR SCRATCH FILES. THESE WILL BE
              DELETED AT THE END OF THE ANALYSIS.
  
  
           NOTE - WHENEVER POSSIBLE THE USER SHOULD SET standard_memory TO BE LESS THAN THE
          PHYSICAL MEMORY ON THE MACHINE. UNLESS NECESSARY USERS SHOULD NOT MAKE USE
          OF VIRTUAL MEMORY EVEN IN AN ATTEMPT TO KEEP SCRATCH FILES IN MEMORY.
  
           NOTE - IF A REORDERING IS PERFORMED (THIS WILL GENERALLY BE DONE ONLY FOR 3D-3D
          LARGE SLIDING PROBLEMS), THE SIZE ESTIMATES DONE AT THIS TIME WILL NO LONGER BE VALID.
          THE ESTIMATES WILL BE REDONE IN THE EVENT OF A REORDERING AND A NEW SUMMARY WILL BE
          BE PRINTED FOR THE REMAINING STEPS.
  
  
  
           S I Z E   E S T I M A T E S   F O R   C U R R E N T   S T E P
  
          NUMBER OF EQUATIONS                        1458
          MAX DOF WAVEFRONT                          68
          FLOATING POINT OPS PER SOLVER ITERATION   1.33E+006
          MEMORY USED FOR STEP                      14.97 MBYTES
  
  
           ESTIMATED FILE SIZES
  
           FILE           KWORDS           KBYTES
  
          .fct            39.647          309.742
          .nck             5.120           40.000
          .opr            28.160          220.000
          -------        -------          -------
           TOTAL          72.927          569.742
  


                                INCREMENT     1 SUMMARY


 TIME INCREMENT COMPLETED   1.00    ,  FRACTION OF STEP COMPLETED   1.00    
 STEP TIME COMPLETED        1.00    ,  TOTAL TIME COMPLETED         1.00    



                                                  E L E M E N T   O U T P U T





   THE FOLLOWING TABLE IS PRINTED FOR ALL ELEMENTS WITH TYPE CPS4 AT THE INTEGRATION POINTS

    ELEMENT  PT FOOT-       S11         S22         S12         E11         E22         E12     
                NOTE 

          1   1        -8.1493E+07  2.4026E+09  2.4611E+08 -1.1461E-02  3.4672E-02  9.1413E-03  
          1   2        -9.4624E+07  2.3612E+09  2.5036E+08 -1.1471E-02  3.4138E-02  9.2991E-03  
          1   3         3.1787E+08  2.3103E+09 -5.6968E+08 -5.3603E-03  3.1642E-02 -2.1159E-02  
          1   4         3.0401E+08  2.2720E+09 -5.6249E+08 -5.3940E-03  3.1154E-02 -2.0892E-02  
          2   1        -2.2143E+08  1.7449E+09 -2.5249E+08 -1.0641E-02  2.5876E-02 -9.3784E-03  
          2   2        -2.3904E+08  1.7128E+09 -2.4122E+08 -1.0755E-02  2.5493E-02 -8.9594E-03  
          2   3         4.4426E+08  1.5731E+09 -6.4225E+08 -3.9540E-04  2.0569E-02 -2.3855E-02  
          2   4         4.2737E+08  1.5461E+09 -6.3153E+08 -5.2102E-04  2.0256E-02 -2.3457E-02  
          3   1        -3.7943E+05  9.7176E+08 -3.8441E+08 -4.1701E-03  1.3884E-02 -1.4278E-02  
          3   2        -1.7112E+07  9.5143E+08 -3.7458E+08 -4.3220E-03  1.3665E-02 -1.3913E-02  
          3   3         4.0829E+08  8.2065E+08 -4.8942E+08  2.3156E-03  9.9738E-03 -1.8178E-02  
          3   4         3.9363E+08  8.0389E+08 -4.8102E+08  2.1780E-03  9.7972E-03 -1.7867E-02  
          4   1         8.7960E+07  3.6216E+08 -2.5643E+08 -2.9554E-04  4.7967E-03 -9.5245E-03  
          4   2         7.8087E+07  3.5464E+08 -2.5166E+08 -4.0437E-04  4.7317E-03 -9.3473E-03  
          4   3         2.6590E+08  3.2993E+08 -2.3787E+08  2.3845E-03  3.5738E-03 -8.8353E-03  
          4   4         2.5741E+08  3.2364E+08 -2.3388E+08  2.2902E-03  3.5203E-03 -8.6869E-03  
          5   1        -4.5735E+07 -2.4522E+07 -2.1155E+07 -5.4827E-04 -1.5431E-04 -7.8574E-04  
          5   2        -4.3935E+07 -1.9990E+07 -2.2880E+07 -5.4198E-04 -9.7277E-05 -8.4984E-04  
          5   3        -1.9394E+07  9.6819E+07  9.7166E+06 -6.9199E-04  1.4662E-03  3.6090E-04  
          5   4        -1.7287E+07  1.0206E+08  7.6295E+06 -6.8435E-04  1.5321E-03  2.8338E-04  
          6   1        -4.5613E+08 -2.7346E+08  2.6604E+08 -5.3442E-03 -1.9518E-03  9.8814E-03  
          6   2        -4.4235E+08 -2.6061E+08  2.5887E+08 -5.2023E-03 -1.8273E-03  9.6152E-03  
          6   3        -5.6230E+08  1.0544E+08  1.9113E+08 -8.4848E-03  3.9162E-03  7.0991E-03  
          6   4        -5.4561E+08  1.2007E+08  1.8270E+08 -8.3090E-03  4.0536E-03  6.7862E-03  
          7   1        -1.1731E+09 -4.0917E+08  5.0171E+08 -1.5006E-02 -8.1749E-04  1.8635E-02  
          7   2        -1.1470E+09 -3.9229E+08  4.9108E+08 -1.4704E-02 -6.8843E-04  1.8240E-02  
          7   3        -1.3226E+09  2.8287E+08  1.3256E+08 -2.0107E-02  9.7094E-03  4.9238E-03  
          7   4        -1.2916E+09  3.0038E+08  1.2132E+08 -1.9739E-02  9.8267E-03  4.5063E-03  
          8   1        -1.9156E+09 -3.3603E+08  5.3250E+08 -2.5926E-02  3.4093E-03  1.9779E-02  
          8   2        -1.8761E+09 -3.2167E+08  5.2500E+08 -2.5423E-02  3.4453E-03  1.9500E-02  
          8   3        -2.0048E+09  9.3864E+07 -3.0588E+08 -2.9042E-02  9.9330E-03 -1.1361E-02  
          8   4        -1.9623E+09  1.0740E+08 -3.1037E+08 -2.8493E-02  9.9440E-03 -1.1528E-02  
          9   1        -7.5451E+07  2.3399E+09  2.5491E+08 -1.1106E-02  3.3751E-02  9.4681E-03  
          9   2        -8.8377E+07  2.2992E+09  2.5910E+08 -1.1116E-02  3.3225E-02  9.6238E-03  
          9   3         3.2408E+08  2.2536E+09 -5.5453E+08 -5.0285E-03  3.0805E-02 -2.0597E-02  
          9   4         3.1042E+08  2.2158E+09 -5.4744E+08 -5.0618E-03  3.0324E-02 -2.0333E-02  
         10   1        -2.2532E+08  1.7003E+09 -2.2675E+08 -1.0506E-02  2.5256E-02 -8.4223E-03  
         10   2        -2.4261E+08  1.6688E+09 -2.1568E+08 -1.0618E-02  2.4880E-02 -8.0109E-03  
         10   3         4.3701E+08  1.5387E+09 -6.1441E+08 -3.5141E-04  2.0109E-02 -2.2821E-02  
         10   4         4.2040E+08  1.5122E+09 -6.0387E+08 -4.7498E-04  1.9801E-02 -2.2429E-02  
         11   1        -1.4457E+07  9.5329E+08 -3.5657E+08 -4.2921E-03  1.3680E-02 -1.3244E-02  
         11   2        -3.0721E+07  9.3346E+08 -3.4700E+08 -4.4394E-03  1.3467E-02 -1.2889E-02  
         11   3         3.8770E+08  8.0997E+08 -4.6275E+08  2.0672E-03  9.9094E-03 -1.7188E-02  
         11   4         3.7343E+08  7.9361E+08 -4.5457E+08  1.9335E-03  9.7369E-03 -1.6884E-02  
         12   1         6.7676E+07  3.7317E+08 -2.3957E+08 -6.3248E-04  5.0409E-03 -8.8984E-03  
         12   2         5.8584E+07  3.6604E+08 -2.3513E+08 -7.3184E-04  4.9781E-03 -8.7334E-03  
         12   3         2.3153E+08  3.4070E+08 -2.2593E+08  1.8475E-03  3.8748E-03 -8.3916E-03  
         12   4         2.2371E+08  3.3473E+08 -2.2220E+08  1.7613E-03  3.8231E-03 -8.2532E-03  
         13   1        -5.9550E+07  9.0171E+06 -2.6383E+07 -8.8936E-04  3.8403E-04 -9.7995E-04  
         13   2        -5.7949E+07  1.2952E+07 -2.7892E+07 -8.8335E-04  4.3338E-04 -1.0360E-03  
         13   3        -3.7202E+07  1.1515E+08 -5.5247E+05 -1.0250E-03  1.8045E-03 -2.0520E-05  
         13   4        -3.5327E+07  1.1970E+08 -2.3748E+06 -1.0177E-03  1.8614E-03 -8.8208E-05  
         14   1        -4.4907E+08 -2.4943E+08  2.4239E+08 -5.3463E-03 -1.6387E-03  9.0031E-03  
         14   2        -4.3564E+08 -2.3699E+08  2.3543E+08 -5.2078E-03 -1.5185E-03  8.7447E-03  
         14   3        -5.4991E+08  1.2052E+08  1.6578E+08 -8.3723E-03  4.0784E-03  6.1577E-03  
         14   4        -5.3366E+08  1.3466E+08  1.5762E+08 -8.2009E-03  4.2109E-03  5.8545E-03  
         15   1        -1.1399E+09 -3.9806E+08  4.7331E+08 -1.4579E-02 -8.0117E-04  1.7580E-02  
         15   2        -1.1143E+09 -3.8149E+08  4.6287E+08 -1.4283E-02 -6.7452E-04  1.7192E-02  
         15   3        -1.2799E+09  2.8848E+08  1.0630E+08 -1.9521E-02  9.6066E-03  3.9481E-03  
         15   4        -1.2495E+09  3.0564E+08  9.5280E+07 -1.9160E-02  9.7215E-03  3.5390E-03  
         16   1        -1.8568E+09 -3.4032E+08  5.1628E+08 -2.5067E-02  3.0960E-03  1.9176E-02  
         16   2        -1.8179E+09 -3.2617E+08  5.0888E+08 -2.4572E-02  3.1315E-03  1.8901E-02  
         16   3        -1.9399E+09  8.9186E+07 -3.1524E+08 -2.8096E-02  9.5881E-03 -1.1709E-02  
         16   4        -1.8981E+09  1.0251E+08 -3.1966E+08 -2.7555E-02  9.5990E-03 -1.1873E-02  
         17   1        -6.9789E+07  2.2782E+09  2.6349E+08 -1.0761E-02  3.2844E-02  9.7869E-03  
         17   2        -8.2517E+07  2.2381E+09  2.6763E+08 -1.0771E-02  3.2326E-02  9.9406E-03  
         17   3         3.2991E+08  2.1975E+09 -5.3986E+08 -4.7050E-03  2.9980E-02 -2.0052E-02  
         17   4         3.1644E+08  2.1603E+09 -5.3286E+08 -4.7380E-03  2.9506E-02 -1.9792E-02  
         18   1        -2.2918E+08  1.6562E+09 -2.0183E+08 -1.0372E-02  2.4643E-02 -7.4967E-03  
         18   2        -2.4616E+08  1.6253E+09 -1.9096E+08 -1.0482E-02  2.4274E-02 -7.0927E-03  
         18   3         4.3005E+08  1.5045E+09 -5.8745E+08 -3.0425E-04  1.9650E-02 -2.1819E-02  
         18   4         4.1370E+08  1.4784E+09 -5.7708E+08 -4.2586E-04  1.9347E-02 -2.1434E-02  
         19   1        -2.7908E+07  9.3470E+08 -3.2972E+08 -4.4045E-03  1.3472E-02 -1.2247E-02  
         19   2        -4.3711E+07  9.1536E+08 -3.2041E+08 -4.5474E-03  1.3264E-02 -1.1901E-02  
         19   3         3.6758E+08  7.9881E+08 -4.3697E+08  1.8276E-03  9.8363E-03 -1.6230E-02  
         19   4         3.5370E+08  7.8285E+08 -4.2901E+08  1.6978E-03  9.6677E-03 -1.5935E-02  
         20   1         4.8890E+07  3.8310E+08 -2.2355E+08 -9.4342E-04  5.2633E-03 -8.3033E-03  
         20   2         4.0501E+07  3.7631E+08 -2.1940E+08 -1.0342E-03  5.2023E-03 -8.1492E-03  
         20   3         1.9965E+08  3.4999E+08 -2.1450E+08  1.3521E-03  4.1443E-03 -7.9672E-03  
         20   4         1.9243E+08  3.4431E+08 -2.1101E+08  1.2734E-03  4.0940E-03 -7.8377E-03  
         21   1        -7.1864E+07  4.0028E+07 -3.1289E+07 -1.1982E-03  8.7982E-04 -1.1622E-03  
         21   2        -7.0420E+07  4.3429E+07 -3.2608E+07 -1.1921E-03  9.2221E-04 -1.2112E-03  
         21   3        -5.3694E+07  1.3197E+08 -1.0170E+07 -1.3327E-03  2.1155E-03 -3.7774E-04  
         21   4        -5.2003E+07  1.3590E+08 -1.1761E+07 -1.3253E-03  2.1643E-03 -4.3684E-04  
         22   1        -4.4144E+08 -2.2608E+08  2.1961E+08 -5.3374E-03 -1.3379E-03  8.1568E-03  
         22   2        -4.2837E+08 -2.1405E+08  2.1286E+08 -5.2022E-03 -1.2219E-03  7.9062E-03  
         22   3        -5.3720E+08  1.3485E+08  1.4144E+08 -8.2523E-03  4.2288E-03  5.2533E-03  
         22   4        -5.2140E+08  1.4853E+08  1.3353E+08 -8.0851E-03  4.3564E-03  4.9596E-03  
         23   1        -1.1069E+09 -3.8735E+08  4.4587E+08 -1.4153E-02 -7.8968E-04  1.6561E-02  
         23   2        -1.0817E+09 -3.7108E+08  4.3562E+08 -1.3862E-02 -6.6533E-04  1.6180E-02  
         23   3        -1.2378E+09  2.9401E+08  8.0935E+07 -1.8942E-02  9.5048E-03  3.0061E-03  
         23   4        -1.2079E+09  3.1084E+08  7.0134E+07 -1.8588E-02  9.6174E-03  2.6050E-03  
         24   1        -1.7987E+09 -3.4422E+08  5.0058E+08 -2.4220E-02  2.7912E-03  1.8593E-02  
         24   2        -1.7604E+09 -3.3028E+08  4.9329E+08 -2.3733E-02  2.8264E-03  1.8322E-02  
         24   3        -1.8760E+09  8.4903E+07 -3.2435E+08 -2.7164E-02  9.2529E-03 -1.2047E-02  
         24   4        -1.8348E+09  9.8013E+07 -3.2871E+08 -2.6632E-02  9.2637E-03 -1.2209E-02  
         25   1        -6.4495E+07  2.2172E+09  2.7187E+08 -1.0424E-02  3.1951E-02  1.0098E-02  
         25   2        -7.7031E+07  2.1778E+09  2.7595E+08 -1.0434E-02  3.1441E-02  1.0250E-02  
         25   3         3.3540E+08  2.1422E+09 -5.2565E+08 -4.3895E-03  2.9165E-02 -1.9524E-02  
         25   4         3.2211E+08  2.1055E+09 -5.1875E+08 -4.4221E-03  2.8698E-02 -1.9268E-02  
         26   1        -2.3301E+08  1.6127E+09 -1.7771E+08 -1.0240E-02  2.4037E-02 -6.6007E-03  
         26   2        -2.4970E+08  1.5823E+09 -1.6702E+08 -1.0348E-02  2.3674E-02 -6.2037E-03  
         26   3         4.2333E+08  1.4705E+09 -5.6133E+08 -2.5455E-04  1.9193E-02 -2.0850E-02  
         26   4         4.0724E+08  1.4448E+09 -5.5113E+08 -3.7428E-04  1.8895E-02 -2.0471E-02  
         27   1        -4.0743E+07  9.1601E+08 -3.0383E+08 -4.5078E-03  1.3260E-02 -1.1285E-02  
         27   2        -5.6096E+07  8.9715E+08 -2.9477E+08 -4.6463E-03  1.3057E-02 -1.0949E-02  
         27   3         3.4798E+08  7.8722E+08 -4.1208E+08  1.5973E-03  9.7547E-03 -1.5306E-02  
         27   4         3.3449E+08  7.7164E+08 -4.0432E+08  1.4714E-03  9.5899E-03 -1.5018E-02  
         28   1         3.1511E+07  3.9195E+08 -2.0830E+08 -1.2297E-03  5.4643E-03 -7.7370E-03  
         28   2         2.3755E+07  3.8545E+08 -2.0441E+08 -1.3126E-03  5.4046E-03 -7.5925E-03  
         28   3         1.7008E+08  3.5791E+08 -2.0356E+08  8.9584E-04  4.3841E-03 -7.5609E-03  
         28   4         1.6341E+08  3.5247E+08 -2.0029E+08  8.2383E-04  4.3349E-03 -7.4394E-03  
         29   1        -8.2764E+07  6.8662E+07 -3.5889E+07 -1.4766E-03  1.3356E-03 -1.3330E-03  
         29   2        -8.1445E+07  7.1584E+07 -3.7043E+07 -1.4703E-03  1.3717E-03 -1.3759E-03  
         29   3        -6.8882E+07  1.4737E+08 -1.9181E+07 -1.6156E-03  2.4006E-03 -7.1243E-04  
         29   4        -6.7333E+07  1.5075E+08 -2.0570E+07 -1.6080E-03  2.4421E-03 -7.6404E-04  
         30   1        -4.3329E+08 -2.0347E+08  1.9768E+08 -5.3179E-03 -1.0497E-03  7.3424E-03  
         30   2        -4.2056E+08 -1.9183E+08  1.9114E+08 -5.1859E-03 -9.3798E-04  7.0994E-03  
         30   3        -5.2423E+08  1.4847E+08  1.1807E+08 -8.1253E-03  4.3677E-03  4.3853E-03  
         30   4        -5.0885E+08  1.6169E+08  1.1041E+08 -7.9623E-03  4.4906E-03  4.1008E-03  
         31   1        -1.0740E+09 -3.7698E+08  4.1936E+08 -1.3728E-02 -7.8239E-04  1.5576E-02  
         31   2        -1.0493E+09 -3.6100E+08  4.0930E+08 -1.3442E-02 -6.6024E-04  1.5202E-02  
         31   3        -1.1960E+09  2.9947E+08  5.6450E+07 -1.8370E-02  9.4041E-03  2.0967E-03  
         31   4        -1.1668E+09  3.1598E+08  4.5855E+07 -1.8023E-02  9.5145E-03  1.7032E-03  
         32   1        -1.7413E+09 -3.4777E+08  4.8541E+08 -2.3385E-02  2.4945E-03  1.8030E-02  
         32   2        -1.7036E+09 -3.3403E+08  4.7822E+08 -2.2905E-02  2.5293E-03  1.7763E-02  
         32   3        -1.8130E+09  8.1002E+07 -3.3322E+08 -2.6247E-02  8.9271E-03 -1.2377E-02  
         32   4        -1.7724E+09  9.3909E+07 -3.3753E+08 -2.5723E-02  8.9377E-03 -1.2537E-02  
         33   1        -5.9556E+07  2.1571E+09  2.8004E+08 -1.0096E-02  3.1072E-02  1.0401E-02  
         33   2        -7.1908E+07  2.1183E+09  2.8408E+08 -1.0106E-02  3.0569E-02  1.0551E-02  
         33   3         3.4055E+08  2.0875E+09 -5.1190E+08 -4.0814E-03  2.8362E-02 -1.9013E-02  
         33   4         3.2744E+08  2.0513E+09 -5.0508E+08 -4.1137E-03  2.7902E-02 -1.8760E-02  
         34   1        -2.3681E+08  1.5696E+09 -1.5436E+08 -1.0110E-02  2.3438E-02 -5.7333E-03  
         34   2        -2.5321E+08  1.5398E+09 -1.4385E+08 -1.0216E-02  2.3082E-02 -5.3431E-03  
         34   3         4.1681E+08  1.4367E+09 -5.3605E+08 -2.0279E-04  1.8738E-02 -1.9910E-02  
         34   4         4.0098E+08  1.4114E+09 -5.2600E+08 -3.2071E-04  1.8445E-02 -1.9537E-02  
         35   1        -5.2975E+07  8.9725E+08 -2.7889E+08 -4.6021E-03  1.3045E-02 -1.0359E-02  
         35   2        -6.7890E+07  8.7886E+08 -2.7008E+08 -4.7364E-03  1.2846E-02 -1.0032E-02  
         35   3         3.2895E+08  7.7523E+08 -3.8804E+08  1.3769E-03  9.6649E-03 -1.4413E-02  
         35   4         3.1583E+08  7.6002E+08 -3.8049E+08  1.2547E-03  9.5038E-03 -1.4132E-02  
         36   1         1.5453E+07  3.9974E+08 -1.9379E+08 -1.4924E-03  5.6443E-03 -7.1978E-03  
         36   2         8.2669E+06  3.9348E+08 -1.9013E+08 -1.5682E-03  5.5857E-03 -7.0619E-03  
         36   3         1.4271E+08  3.6453E+08 -1.9309E+08  4.7642E-04  4.5960E-03 -7.1719E-03  
         36   4         1.3652E+08  3.5929E+08 -1.9001E+08  4.1053E-04  4.5476E-03 -7.0574E-03  
         37   1        -9.2335E+07  9.5055E+07 -4.0198E+07 -1.7265E-03  1.7537E-03 -1.4931E-03  
         37   2        -9.1109E+07  9.7548E+07 -4.1209E+07 -1.7196E-03  1.7840E-03 -1.5306E-03  
         37   3        -8.2784E+07  1.6144E+08 -2.7624E+07 -1.8745E-03  2.6610E-03 -1.0260E-03  
         37   4        -8.1341E+07  1.6431E+08 -2.8839E+07 -1.8662E-03  2.6960E-03 -1.0712E-03  
         38   1        -4.2466E+08 -1.8162E+08  1.7660E+08 -5.2882E-03 -7.7460E-04  6.5595E-03  
         38   2        -4.1226E+08 -1.7036E+08  1.7026E+08 -5.1593E-03 -6.6686E-04  6.3238E-03  
         38   3        -5.1102E+08  1.6139E+08  9.5658E+07 -7.9919E-03  4.4956E-03  3.5530E-03  
         38   4        -4.9606E+08  1.7416E+08  8.8240E+07 -7.8330E-03  4.6140E-03  3.2775E-03  
         39   1        -1.0414E+09 -3.6693E+08  3.9376E+08 -1.3304E-02 -7.7877E-04  1.4626E-02  
         39   2        -1.0170E+09 -3.5122E+08  3.8387E+08 -1.3024E-02 -6.5875E-04  1.4258E-02  
         39   3        -1.1548E+09  3.0486E+08  3.2814E+07 -1.7804E-02  9.3044E-03  1.2188E-03  
         39   4        -1.1261E+09  3.2106E+08  2.2418E+07 -1.7463E-02  9.4128E-03  8.3267E-04  
         40   1        -1.6846E+09 -3.5100E+08  4.7075E+08 -2.2561E-02  2.2054E-03  1.7485E-02  
         40   2        -1.6474E+09 -3.3744E+08  4.6365E+08 -2.2089E-02  2.2398E-03  1.7221E-02  
         40   3        -1.7508E+09  7.7470E+07 -3.4187E+08 -2.5344E-02  8.6102E-03 -1.2698E-02  
         40   4        -1.7109E+09  9.0182E+07 -3.4612E+08 -2.4828E-02  8.6207E-03 -1.2856E-02  
         41   1        -5.4961E+07  2.0978E+09  2.8801E+08 -9.7759E-03  3.0205E-02  1.0698E-02  
         41   2        -6.7135E+07  2.0595E+09  2.9200E+08 -9.7856E-03  2.9710E-02  1.0846E-02  
         41   3         3.4540E+08  2.0334E+09 -4.9859E+08 -3.7805E-03  2.7569E-02 -1.8519E-02  
         41   4         3.3246E+08  1.9978E+09 -4.9185E+08 -3.8124E-03  2.7115E-02 -1.8269E-02  
         42   1        -2.4058E+08  1.5270E+09 -1.3175E+08 -9.9813E-03  2.2846E-02 -4.8936E-03  
         42   2        -2.5671E+08  1.4977E+09 -1.2142E+08 -1.0086E-02  2.2496E-02 -4.5100E-03  
         42   3         4.1048E+08  1.4031E+09 -5.1156E+08 -1.4937E-04  1.8285E-02 -1.9001E-02  
         42   4         3.9488E+08  1.3782E+09 -5.0167E+08 -2.6556E-04  1.7997E-02 -1.8633E-02  
         43   1        -6.4619E+07  8.7844E+08 -2.5487E+08 -4.6879E-03  1.2826E-02 -9.4667E-03  
         43   2        -7.9109E+07  8.6051E+08 -2.4631E+08 -4.8180E-03  1.2632E-02 -9.1486E-03  
         43   3         3.1052E+08  7.6286E+08 -3.6487E+08  1.1666E-03  9.5673E-03 -1.3552E-02  
         43   4         2.9776E+08  7.4801E+08 -3.5751E+08  1.0480E-03  9.4098E-03 -1.3279E-02  
         44   1         6.3930E+05  4.0646E+08 -1.7995E+08 -1.7328E-03  5.8039E-03 -6.6840E-03  
         44   2        -6.0344E+06  4.0040E+08 -1.7650E+08 -1.8022E-03  5.7459E-03 -6.5557E-03  
         44   3         1.1740E+08  3.6993E+08 -1.8306E+08  9.1756E-05  4.7816E-03 -6.7994E-03  
         44   4         1.1166E+08  3.6486E+08 -1.8014E+08  3.1433E-05  4.7337E-03 -6.6911E-03  
         45   1        -1.0066E+08  1.1933E+08 -4.4228E+07 -1.9494E-03  2.1361E-03 -1.6428E-03  
         45   2        -9.9497E+07  1.2144E+08 -4.5116E+07 -1.9418E-03  2.1613E-03 -1.6757E-03  
         45   3        -9.5427E+07  1.7424E+08 -3.5534E+07 -2.1100E-03  2.8981E-03 -1.3198E-03  
         45   4        -9.4058E+07  1.7667E+08 -3.6597E+07 -2.1009E-03  2.9270E-03 -1.3593E-03  
         46   1        -4.1557E+08 -1.6055E+08  1.5636E+08 -5.2487E-03 -5.1255E-04  5.8077E-03  
         46   2        -4.0350E+08 -1.4966E+08  1.5020E+08 -5.1229E-03 -4.0871E-04  5.5790E-03  
         46   3        -4.9760E+08  1.7363E+08  7.4189E+07 -7.8527E-03  4.6129E-03  2.7556E-03  
         46   4        -4.8304E+08  1.8597E+08  6.7005E+07 -7.6976E-03  4.7269E-03  2.4887E-03  
         47   1        -1.0089E+09 -3.5716E+08  3.6904E+08 -1.2882E-02 -7.7841E-04  1.3707E-02  
         47   2        -9.8495E+08 -3.4171E+08  3.5931E+08 -1.2606E-02 -6.6042E-04  1.3346E-02  
         47   3        -1.1140E+09  3.1019E+08  1.0002E+07 -1.7244E-02  9.2057E-03  3.7152E-04  
         47   4        -1.0859E+09  3.2609E+08 -2.0272E+05 -1.6910E-02  9.3121E-03 -7.5295E-06  
         48   1        -1.6286E+09 -3.5392E+08  4.5658E+08 -2.1748E-02  1.9236E-03  1.6959E-02  
         48   2        -1.5919E+09 -3.4055E+08  4.4958E+08 -2.1282E-02  1.9576E-03  1.6699E-02  
         48   3        -1.6895E+09  7.4292E+07 -3.5031E+08 -2.4454E-02  8.3020E-03 -1.3011E-02  
         48   4        -1.6502E+09  8.6816E+07 -3.5450E+08 -2.3946E-02  8.3124E-03 -1.3167E-02  
         49   1        -5.0697E+07  2.0393E+09  2.9580E+08 -9.4641E-03  2.9350E-02  1.0987E-02  
         49   2        -6.2699E+07  2.0015E+09  2.9974E+08 -9.4738E-03  2.8862E-02  1.1133E-02  
         49   3         3.4996E+08  1.9800E+09 -4.8570E+08 -3.4863E-03  2.6786E-02 -1.8040E-02  
         49   4         3.3718E+08  1.9448E+09 -4.7905E+08 -3.5180E-03  2.6338E-02 -1.7793E-02  
         50   1        -2.4433E+08  1.4849E+09 -1.0987E+08 -9.8545E-03  2.2261E-02 -4.0809E-03  
         50   2        -2.6019E+08  1.4561E+09 -9.9712E+07 -9.9576E-03  2.1917E-02 -3.7036E-03  
         50   3         4.0430E+08  1.3697E+09 -4.8784E+08 -9.4605E-05  1.7835E-02 -1.8120E-02  
         50   4         3.8894E+08  1.3453E+09 -4.7810E+08 -2.0912E-04  1.7551E-02 -1.7758E-02  
         51   1        -7.5690E+07  8.5961E+08 -2.3177E+08 -4.7653E-03  1.2604E-02 -8.6085E-03  
         51   2        -8.9768E+07  8.4211E+08 -2.2344E+08 -4.8915E-03  1.2415E-02 -8.2990E-03  
         51   3         2.9270E+08  7.5016E+08 -3.4254E+08  9.6651E-04  9.4622E-03 -1.2723E-02  
         51   4         2.8030E+08  7.3566E+08 -3.3537E+08  8.5143E-04  9.3082E-03 -1.2456E-02  
         52   1        -1.3003E+07  4.1215E+08 -1.6677E+08 -1.9521E-03  5.9435E-03 -6.1942E-03  
         52   2        -1.9216E+07  4.0626E+08 -1.6349E+08 -2.0156E-03  5.8860E-03 -6.0725E-03  
         52   3         9.4051E+07  3.7418E+08 -1.7346E+08 -2.6005E-04  4.9424E-03 -6.4426E-03  
         52   4         8.8704E+07  3.6925E+08 -1.7069E+08 -3.1532E-04  4.8949E-03 -6.3398E-03  
         53   1        -1.0780E+08  1.4161E+08 -4.7991E+07 -2.1469E-03  2.4849E-03 -1.7825E-03  
         53   2        -1.0669E+08  1.4338E+08 -4.8773E+07 -2.1385E-03  2.5054E-03 -1.8116E-03  
         53   3        -1.0684E+08  1.8585E+08 -4.2941E+07 -2.3228E-03  3.1129E-03 -1.5950E-03  
         53   4        -1.0552E+08  1.8790E+08 -4.3874E+07 -2.3127E-03  3.1364E-03 -1.6296E-03  
         54   1        -4.0608E+08 -1.4028E+08  1.3694E+08 -5.1999E-03 -2.6363E-04  5.0865E-03  
         54   2        -3.9432E+08 -1.2975E+08  1.3097E+08 -5.0771E-03 -1.6357E-04  4.8647E-03  
         54   3        -4.8400E+08  1.8520E+08  5.3640E+07 -7.7080E-03  4.7200E-03  1.9923E-03  
         54   4        -4.6983E+08  1.9713E+08  4.6681E+07 -7.5567E-03  4.8296E-03  1.7339E-03  
         55   1        -9.7659E+08 -3.4765E+08  3.4517E+08 -1.2461E-02 -7.8096E-04  1.2821E-02  
         55   2        -9.5304E+08 -3.3246E+08  3.3561E+08 -1.2190E-02 -6.6493E-04  1.2465E-02  
         55   3        -1.0737E+09  3.1544E+08 -1.2010E+07 -1.6691E-02  9.1080E-03 -4.4609E-04  
         55   4        -1.0461E+09  3.3105E+08 -2.2031E+07 -1.6362E-02  9.2124E-03 -8.1829E-04  
         56   1        -1.5732E+09 -3.5655E+08  4.4290E+08 -2.0946E-02  1.6486E-03  1.6450E-02  
         56   2        -1.5370E+09 -3.4335E+08  4.3598E+08 -2.0486E-02  1.6823E-03  1.6194E-02  
         56   3        -1.6290E+09  7.1455E+07 -3.5853E+08 -2.3577E-02  8.0021E-03 -1.3317E-02  
         56   4        -1.5902E+09  8.3798E+07 -3.6267E+08 -2.3077E-02  8.0124E-03 -1.3471E-02  
         57   1        -4.6751E+07  1.9815E+09  3.0340E+08 -9.1601E-03  2.8508E-02  1.1269E-02  
         57   2        -5.8587E+07  1.9443E+09  3.0729E+08 -9.1696E-03  2.8027E-02  1.1414E-02  
         57   3         3.5424E+08  1.9272E+09 -4.7323E+08 -3.1987E-03  2.6013E-02 -1.7577E-02  
         57   4         3.4163E+08  1.8924E+09 -4.6666E+08 -3.2300E-03  2.5571E-02 -1.7333E-02  
         58   1        -2.4805E+08  1.4433E+09 -8.8696E+07 -9.7293E-03  2.1682E-02 -3.2944E-03  
         58   2        -2.6366E+08  1.4150E+09 -7.8702E+07 -9.8308E-03  2.1344E-02 -2.9232E-03  
         58   3         3.9826E+08  1.3366E+09 -4.6488E+08 -3.8763E-05  1.7387E-02 -1.7267E-02  
         58   4         3.8312E+08  1.3125E+09 -4.5528E+08 -1.5166E-04  1.7108E-02 -1.6911E-02  
         59   1        -8.6202E+07  8.4076E+08 -2.0955E+08 -4.8347E-03  1.2380E-02 -7.7833E-03  
         59   2        -9.9882E+07  8.2369E+08 -2.0144E+08 -4.9570E-03  1.2195E-02 -7.4821E-03  
         59   3         2.7553E+08  7.3715E+08 -3.2103E+08  7.7686E-04  9.3499E-03 -1.1924E-02  
         59   4         2.6346E+08  7.2299E+08 -3.1404E+08  6.6520E-04  9.1993E-03 -1.1664E-02  
         60   1        -2.5540E+07  4.1681E+08 -1.5419E+08 -2.1512E-03  6.0639E-03 -5.7270E-03  
         60   2        -3.1341E+07  4.1106E+08 -1.5107E+08 -2.2094E-03  6.0067E-03 -5.6112E-03  
         60   3         7.2552E+07  3.7736E+08 -1.6426E+08 -5.8078E-04  5.0799E-03 -6.1009E-03  
         60   4         6.7560E+07  3.7255E+08 -1.6162E+08 -6.3148E-04  5.0325E-03 -6.0028E-03  
         61   1        -1.1384E+08  1.6198E+08 -5.1495E+07 -2.3205E-03  2.8019E-03 -1.9127E-03  
         61   2        -1.1275E+08  1.6345E+08 -5.2187E+07 -2.3112E-03  2.8182E-03 -1.9384E-03  
         61   3        -1.1706E+08  1.9634E+08 -4.9871E+07 -2.5138E-03  3.3065E-03 -1.8524E-03  
         61   4        -1.1576E+08  1.9804E+08 -5.0693E+07 -2.5025E-03  3.3253E-03 -1.8829E-03  
         62   1        -3.9620E+08 -1.2081E+08  1.1834E+08 -5.1423E-03 -2.7793E-05  4.3954E-03  
         62   2        -3.8474E+08 -1.1062E+08  1.1254E+08 -5.0222E-03  6.8614E-05  4.1802E-03  
         62   3        -4.7024E+08  1.9612E+08  3.3989E+07 -7.5582E-03  4.8171E-03  1.2624E-03  
         62   4        -4.5644E+08  2.0765E+08  2.7248E+07 -7.4106E-03  4.9226E-03  1.0121E-03  
         63   1        -9.4448E+08 -3.3837E+08  3.2213E+08 -1.2042E-02 -7.8613E-04  1.1965E-02  
         63   2        -9.2132E+08 -3.2343E+08  3.1272E+08 -1.1776E-02 -6.7199E-04  1.1615E-02  
         63   3        -1.0339E+09  3.2063E+08 -3.3246E+07 -1.6144E-02  9.0112E-03 -1.2348E-03  
         63   4        -1.0067E+09  3.3596E+08 -4.3089E+07 -1.5821E-02  9.1138E-03 -1.6004E-03  
         64   1        -1.5184E+09 -3.5891E+08  4.2968E+08 -2.0154E-02  1.3802E-03  1.5960E-02  
         64   2        -1.4828E+09 -3.4589E+08  4.2285E+08 -1.9700E-02  1.4135E-03  1.5706E-02  
         64   3        -1.5692E+09  6.8945E+07 -3.6654E+08 -2.2713E-02  7.7102E-03 -1.3614E-02  
         64   4        -1.5310E+09  8.1115E+07 -3.7063E+08 -2.2220E-02  7.7204E-03 -1.3766E-02  
         65   1        -4.3111E+07  1.9244E+09  3.1082E+08 -8.8635E-03  2.7677E-02  1.1545E-02  
         65   2        -5.4788E+07  1.8877E+09  3.1467E+08 -8.8729E-03  2.7202E-02  1.1688E-02  
         65   3         3.5826E+08  1.8749E+09 -4.6117E+08 -2.9172E-03  2.5249E-02 -1.7129E-02  
         65   4         3.4580E+08  1.8406E+09 -4.5467E+08 -2.9483E-03  2.4812E-02 -1.6888E-02  
         66   1        -2.5175E+08  1.4022E+09 -6.8207E+07 -9.6058E-03  2.1110E-02 -2.5334E-03  
         66   2        -2.6710E+08  1.3743E+09 -5.8373E+07 -9.7057E-03  2.0778E-02 -2.1681E-03  
         66   3         3.9235E+08  1.3036E+09 -4.4265E+08  1.7959E-05  1.6942E-02 -1.6441E-02  
         66   4         3.7743E+08  1.2799E+09 -4.3320E+08 -9.3365E-05  1.6666E-02 -1.6090E-02  
         67   1        -9.6170E+07  8.2190E+08 -1.8820E+08 -4.8963E-03  1.2154E-02 -6.9901E-03  
         67   2        -1.0947E+08  8.0524E+08 -1.8031E+08 -5.0148E-03  1.1973E-02 -6.6970E-03  
         67   3         2.5899E+08  7.2386E+08 -3.0033E+08  5.9763E-04  9.2309E-03 -1.1155E-02  
         67   4         2.4726E+08  7.1003E+08 -2.9353E+08  4.8927E-04  9.0836E-03 -1.0902E-02  
         68   1        -3.7036E+07  4.2049E+08 -1.4219E+08 -2.3312E-03  6.1657E-03 -5.2813E-03  
         68   2        -4.2467E+07  4.1486E+08 -1.3921E+08 -2.3846E-03  6.1085E-03 -5.1707E-03  
         68   3         5.2809E+07  3.7952E+08 -1.5545E+08 -8.7211E-04  5.1954E-03 -5.7737E-03  
         68   4         4.8136E+07  3.7481E+08 -1.5292E+08 -9.1866E-04  5.1481E-03 -5.6798E-03  
         69   1        -1.1885E+08  1.8056E+08 -5.4749E+07 -2.4717E-03  3.0888E-03 -2.0335E-03  
         69   2        -1.1776E+08  1.8176E+08 -5.5365E+07 -2.4613E-03  3.1013E-03 -2.0564E-03  
         69   3        -1.2613E+08  2.0577E+08 -5.6349E+07 -2.6837E-03  3.4802E-03 -2.0930E-03  
         69   4        -1.2483E+08  2.0716E+08 -5.7077E+07 -2.6712E-03  3.4945E-03 -2.1200E-03  
         70   1        -3.8598E+08 -1.0214E+08  1.0053E+08 -5.0763E-03  1.9507E-04  3.7339E-03  
         70   2        -3.7481E+08 -9.2286E+07  9.4906E+07 -4.9589E-03  2.8796E-04  3.5251E-03  
         70   3        -4.5634E+08  2.0642E+08  1.5215E+07 -7.4038E-03  4.9046E-03  5.6514E-04  
         70   4        -4.4290E+08  2.1757E+08  8.6841E+06 -7.2596E-03  5.0062E-03  3.2255E-04  
         71   1        -9.1256E+08 -3.2933E+08  2.9990E+08 -1.1625E-02 -7.9368E-04  1.1139E-02  
         71   2        -8.8977E+08 -3.1463E+08  2.9064E+08 -1.1363E-02 -6.8137E-04  1.0795E-02  
         71   3        -9.9443E+08  3.2575E+08 -5.3726E+07 -1.5602E-02  8.9154E-03 -1.9955E-03  
         71   4        -9.6773E+08  3.4081E+08 -6.3397E+07 -1.5285E-02  9.0162E-03 -2.3547E-03  
         72   1        -1.4643E+09 -3.6102E+08  4.1692E+08 -1.9371E-02  1.1180E-03  1.5486E-02  
         72   2        -1.4291E+09 -3.4815E+08  4.1017E+08 -1.8923E-02  1.1510E-03  1.5235E-02  
         72   3        -1.5102E+09  6.6750E+07 -3.7436E+08 -2.1861E-02  7.4261E-03 -1.3905E-02  
         72   4        -1.4726E+09  7.8752E+07 -3.7840E+08 -2.1374E-02  7.4361E-03 -1.4055E-02  
         73   1        -3.9766E+07  1.8681E+09  3.1807E+08 -8.5741E-03  2.6857E-02  1.1814E-02  
         73   2        -5.1289E+07  1.8318E+09  3.2188E+08 -8.5834E-03  2.6389E-02  1.1955E-02  
         73   3         3.6204E+08  1.8232E+09 -4.4950E+08 -2.6417E-03  2.4494E-02 -1.6696E-02  
         73   4         3.4972E+08  1.7893E+09 -4.4308E+08 -2.6725E-03  2.4063E-02 -1.6457E-02  
         74   1        -2.5541E+08  1.3615E+09 -4.8386E+07 -9.4838E-03  2.0545E-02 -1.7972E-03  
         74   2        -2.7052E+08  1.3341E+09 -3.8706E+07 -9.5822E-03  2.0218E-02 -1.4377E-03  
         74   3         3.8655E+08  1.2709E+09 -4.2114E+08  7.5401E-05  1.6499E-02 -1.5642E-02  
         74   4         3.7184E+08  1.2475E+09 -4.1182E+08 -3.4403E-05  1.6228E-02 -1.5296E-02  
         75   1        -1.0561E+08  8.0306E+08 -1.6769E+08 -4.9504E-03  1.1925E-02 -6.2284E-03  
         75   2        -1.1854E+08  7.8680E+08 -1.6001E+08 -5.0654E-03  1.1748E-02 -5.9431E-03  
         75   3         2.4311E+08  7.1032E+08 -2.8043E+08  4.2881E-04  9.1055E-03 -1.0416E-02  
         75   4         2.3169E+08  6.9680E+08 -2.7380E+08  3.2363E-04  8.9613E-03 -1.0170E-02  
         76   1        -4.7549E+07  4.2321E+08 -1.3074E+08 -2.4930E-03  6.2496E-03 -4.8560E-03  
         76   2        -5.2650E+07  4.1766E+08 -1.2788E+08 -2.5421E-03  6.1923E-03 -4.7499E-03  
         76   3         3.4730E+07  3.8074E+08 -1.4701E+08 -1.1356E-03  5.2903E-03 -5.4603E-03  
         76   4         3.0342E+07  3.7610E+08 -1.4458E+08 -1.1784E-03  5.2428E-03 -5.3701E-03  
         77   1        -1.2288E+08  1.9743E+08 -5.7761E+07 -2.6016E-03  3.3471E-03 -2.1454E-03  
         77   2        -1.2179E+08  1.9840E+08 -5.8313E+07 -2.5902E-03  3.3562E-03 -2.1659E-03  
         77   3        -1.3408E+08  2.1421E+08 -6.2396E+07 -2.8334E-03  3.6347E-03 -2.3176E-03  
         77   4        -1.3277E+08  2.1533E+08 -6.3045E+07 -2.8196E-03  3.6451E-03 -2.3417E-03  
         78   1        -3.7544E+08 -8.4273E+07  8.3500E+07 -5.0022E-03  4.0513E-04  3.1014E-03  
         78   2        -3.6455E+08 -7.4740E+07  7.8044E+07 -4.8875E-03  4.9463E-04  2.8988E-03  
         78   3        -4.4231E+08  2.1611E+08 -2.7020E+06 -7.2450E-03  4.9830E-03 -1.0036E-04  
         78   4        -4.2923E+08  2.2689E+08 -9.0316E+06 -7.1042E-03  5.0808E-03 -3.3546E-04  
         79   1        -8.8084E+08 -3.2049E+08  2.7845E+08 -1.1210E-02 -8.0343E-04  1.0343E-02  
         79   2        -8.5840E+08 -3.0602E+08  2.6934E+08 -1.0951E-02 -6.9288E-04  1.0004E-02  
         79   3        -9.5544E+08  3.3080E+08 -7.3471E+07 -1.5067E-02  8.8204E-03 -2.7289E-03  
         79   4        -9.2919E+08  3.4561E+08 -8.2976E+07 -1.4755E-02  8.9195E-03 -3.0820E-03  
         80   1        -1.4107E+09 -3.6288E+08  4.0461E+08 -1.8598E-02  8.6182E-04  1.5028E-02  
         80   2        -1.3759E+09 -3.5017E+08  3.9793E+08 -1.8156E-02  8.9446E-04  1.4780E-02  
         80   3        -1.4520E+09  6.4856E+07 -3.8198E+08 -2.1020E-02  7.1493E-03 -1.4188E-02  
         80   4        -1.4148E+09  7.6696E+07 -3.8597E+08 -2.0540E-02  7.1592E-03 -1.4336E-02  
         81   1        -3.6703E+07  1.8123E+09  3.2515E+08 -8.2915E-03  2.6048E-02  1.2077E-02  
         81   2        -4.8078E+07  1.7766E+09  3.2892E+08 -8.3008E-03  2.5586E-02  1.2217E-02  
         81   3         3.6557E+08  1.7720E+09 -4.3822E+08 -2.3720E-03  2.3748E-02 -1.6277E-02  
         81   4         3.5340E+08  1.7386E+09 -4.3187E+08 -2.4025E-03  2.3322E-02 -1.6041E-02  
         82   1        -2.5904E+08  1.3213E+09 -2.9215E+07 -9.3633E-03  1.9986E-02 -1.0851E-03  
         82   2        -2.7392E+08  1.2943E+09 -1.9685E+07 -9.4602E-03  1.9664E-02 -7.3116E-04  
         82   3         3.8086E+08  1.2384E+09 -4.0033E+08  1.3344E-04  1.6059E-02 -1.4869E-02  
         82   4         3.6636E+08  1.2153E+09 -3.9114E+08  2.5108E-05  1.5792E-02 -1.4528E-02  
         83   1        -1.1454E+08  7.8424E+08 -1.4800E+08 -4.9973E-03  1.1694E-02 -5.4972E-03  
         83   2        -1.2711E+08  7.6835E+08 -1.4052E+08 -5.1088E-03  1.1521E-02 -5.2194E-03  
         83   3         2.2789E+08  6.9655E+08 -2.6131E+08  2.7030E-04  8.9740E-03 -9.7060E-03  
         83   4         2.1677E+08  6.8333E+08 -2.5484E+08  1.6819E-04  8.8328E-03 -9.4656E-03  
         84   1        -5.7134E+07  4.2500E+08 -1.1981E+08 -2.6376E-03  6.3163E-03 -4.4502E-03  
         84   2        -6.1942E+07  4.1953E+08 -1.1706E+08 -2.6829E-03  6.2587E-03 -4.3479E-03  
         84   3         1.8232E+07  3.8108E+08 -1.3893E+08 -1.3727E-03  5.3658E-03 -5.1604E-03  
         84   4         1.4097E+07  3.7649E+08 -1.3659E+08 -1.4122E-03  5.3181E-03 -5.0734E-03  
         85   1        -1.2602E+08  2.1269E+08 -6.0537E+07 -2.7117E-03  3.5785E-03 -2.2485E-03  
         85   2        -1.2490E+08  2.1344E+08 -6.1037E+07 -2.6991E-03  3.5845E-03 -2.2671E-03  
         85   3        -1.4096E+08  2.2170E+08 -6.8031E+07 -2.9638E-03  3.7712E-03 -2.5269E-03  
         85   4        -1.3962E+08  2.2258E+08 -6.8614E+07 -2.9486E-03  3.7781E-03 -2.5485E-03  
         86   1        -3.6461E+08 -6.7202E+07  6.7241E+07 -4.9207E-03  6.0258E-04  2.4975E-03  
         86   2        -3.5399E+08 -5.7977E+07  6.1943E+07 -4.8085E-03  6.8884E-04  2.3007E-03  
         86   3        -4.2819E+08  2.2521E+08 -1.9784E+07 -7.0821E-03  5.0524E-03 -7.3482E-04  
         86   4        -4.1543E+08  2.3563E+08 -2.5920E+07 -6.9446E-03  5.1466E-03 -9.6274E-04  
         87   1        -8.4931E+08 -3.1186E+08  2.5777E+08 -1.0796E-02 -8.1522E-04  9.5743E-03  
         87   2        -8.2722E+08 -2.9761E+08  2.4880E+08 -1.0542E-02 -7.0638E-04  9.2410E-03  
         87   3        -9.1687E+08  3.3578E+08 -9.2500E+07 -1.4537E-02  8.7263E-03 -3.4357E-03  
         87   4        -8.9107E+08  3.5034E+08 -1.0184E+08 -1.4231E-02  8.8237E-03 -3.7828E-03  
         88   1        -1.3577E+09 -3.6451E+08  3.9272E+08 -1.7833E-02  6.1134E-04  1.4587E-02  
         88   2        -1.3234E+09 -3.5195E+08  3.8613E+08 -1.7397E-02  6.4366E-04  1.4342E-02  
         88   3        -1.3944E+09  6.3250E+07 -3.8941E+08 -2.0191E-02  6.8796E-03 -1.4464E-02  
         88   4        -1.3577E+09  7.4935E+07 -3.9336E+08 -1.9717E-02  6.8894E-03 -1.4611E-02  
         89   1        -3.3912E+07  1.7573E+09  3.3206E+08 -8.0156E-03  2.5249E-02  1.2334E-02  
         89   2        -4.5144E+07  1.7220E+09  3.3579E+08 -8.0248E-03  2.4793E-02  1.2472E-02  
         89   3         3.6888E+08  1.7214E+09 -4.2732E+08 -2.1077E-03  2.3010E-02 -1.5872E-02  
         89   4         3.5684E+08  1.6883E+09 -4.2103E+08 -2.1380E-03  2.2590E-02 -1.5638E-02  
         90   1        -2.6265E+08  1.2815E+09 -1.0679E+07 -9.2443E-03  1.9433E-02 -3.9664E-04  
         90   2        -2.7729E+08  1.2550E+09 -1.2936E+06 -9.3398E-03  1.9117E-02 -4.8048E-05  
         90   3         3.7526E+08  1.2061E+09 -3.8019E+08  1.9197E-04  1.5622E-02 -1.4121E-02  
         90   4         3.6097E+08  1.1834E+09 -3.7113E+08  8.5077E-05  1.5358E-02 -1.3785E-02  
         91   1        -1.2297E+08  7.6545E+08 -1.2912E+08 -5.0372E-03  1.1462E-02 -4.7959E-03  
         91   2        -1.3519E+08  7.4992E+08 -1.2183E+08 -5.1453E-03  1.1293E-02 -4.5252E-03  
         91   3         2.1331E+08  6.8257E+08 -2.4296E+08  1.2199E-04  8.8368E-03 -9.0242E-03  
         91   4         2.0249E+08  6.6964E+08 -2.3665E+08  2.2840E-05  8.6985E-03 -8.7897E-03  
         92   1        -6.5844E+07  4.2591E+08 -1.0938E+08 -2.7659E-03  6.3666E-03 -4.0628E-03  
         92   2        -7.0391E+07  4.2048E+08 -1.0672E+08 -2.8076E-03  6.3085E-03 -3.9640E-03  
         92   3         3.2320E+06  3.8059E+08 -1.3121E+08 -1.5849E-03  5.4231E-03 -4.8734E-03  
         92   4        -6.7796E+05  3.7605E+08 -1.2894E+08 -1.6213E-03  5.3750E-03 -4.7891E-03  
         93   1        -1.2830E+08  2.2641E+08 -6.3084E+07 -2.8032E-03  3.7842E-03 -2.3431E-03  
         93   2        -1.2716E+08  2.2698E+08 -6.3542E+07 -2.7893E-03  3.7875E-03 -2.3601E-03  
         93   3        -1.4681E+08  2.2830E+08 -7.3272E+07 -3.0758E-03  3.8906E-03 -2.7215E-03  
         93   4        -1.4544E+08  2.2898E+08 -7.3802E+07 -3.0590E-03  3.8944E-03 -2.7412E-03  
         94   1        -3.5351E+08 -5.0917E+07  5.1733E+07 -4.8320E-03  7.8768E-04  1.9215E-03  
         94   2        -3.4315E+08 -4.1989E+07  4.6588E+07 -4.7222E-03  8.7081E-04  1.7304E-03  
         94   3        -4.1397E+08  2.3374E+08 -3.6050E+07 -6.9156E-03  5.1133E-03 -1.3390E-03  
         94   4        -4.0153E+08  2.4382E+08 -4.2001E+07 -6.7811E-03  5.2039E-03 -1.5600E-03  
         95   1        -8.1798E+08 -3.0342E+08  2.3784E+08 -1.0385E-02 -8.2891E-04  8.8339E-03  
         95   2        -7.9623E+08 -2.8939E+08  2.2900E+08 -1.0134E-02 -7.2173E-04  8.5057E-03  
         95   3        -8.7872E+08  3.4069E+08 -1.1083E+08 -1.4013E-02  8.6330E-03 -4.1166E-03  
         95   4        -8.5335E+08  3.5501E+08 -1.2002E+08 -1.3712E-02  8.7288E-03 -4.4579E-03  
         96   1        -1.3052E+09 -3.6592E+08  3.8127E+08 -1.7078E-02  3.6634E-04  1.4161E-02  
         96   2        -1.2713E+09 -3.5351E+08  3.7474E+08 -1.6647E-02  3.9836E-04  1.3919E-02  
         96   3        -1.3375E+09  6.1920E+07 -3.9667E+08 -1.9373E-02  6.6167E-03 -1.4733E-02  
         96   4        -1.3013E+09  7.3456E+07 -4.0057E+08 -1.8905E-02  6.6264E-03 -1.4878E-02  
         97   1        -3.1381E+07  1.7028E+09  3.3882E+08 -7.7461E-03  2.4460E-02  1.2585E-02  
         97   2        -4.2475E+07  1.6680E+09  3.4252E+08 -7.7552E-03  2.4010E-02  1.2722E-02  
         97   3         3.7196E+08  1.6712E+09 -4.1678E+08 -1.8487E-03  2.2281E-02 -1.5480E-02  
         97   4         3.6006E+08  1.6386E+09 -4.1055E+08 -1.8788E-03  2.1865E-02 -1.5249E-02  
         98   1        -2.6622E+08  1.2422E+09  7.2396E+06 -9.1267E-03  1.8886E-02  2.6890E-04  
         98   2        -2.8065E+08  1.2161E+09  1.6484E+07 -9.2209E-03  1.8575E-02  6.1225E-04  
         98   3         3.6977E+08  1.1740E+09 -3.6072E+08  2.5094E-04  1.5187E-02 -1.3398E-02  
         98   4         3.5566E+08  1.1516E+09 -3.5179E+08  1.4543E-04  1.4927E-02 -1.3066E-02  
         99   1        -1.3091E+08  7.4670E+08 -1.1102E+08 -5.0703E-03  1.1228E-02 -4.1237E-03  
         99   2        -1.4281E+08  7.3152E+08 -1.0392E+08 -5.1752E-03  1.1062E-02 -3.8599E-03  
         99   3         1.9938E+08  6.6841E+08 -2.2535E+08 -1.6271E-05  8.6942E-03 -8.3701E-03  
         99   4         1.8885E+08  6.5576E+08 -2.1919E+08 -1.1258E-04  8.5586E-03 -8.1413E-03  
        100   1        -7.3727E+07  4.2595E+08 -9.9432E+07 -2.8788E-03  6.4010E-03 -3.6932E-03  
        100   2        -7.8044E+07  4.2056E+08 -9.6849E+07 -2.9173E-03  6.3425E-03 -3.5972E-03  
        100   3        -1.0346E+07  3.7933E+08 -1.2381E+08 -1.7735E-03  5.4633E-03 -4.5988E-03  
        100   4        -1.4057E+07  3.7482E+08 -1.2161E+08 -1.8072E-03  5.4148E-03 -4.5168E-03  
        101   1        -1.2980E+08  2.3867E+08 -6.5408E+07 -2.8772E-03  3.9658E-03 -2.4294E-03  
        101   2        -1.2862E+08  2.3908E+08 -6.5833E+07 -2.8620E-03  3.9667E-03 -2.4452E-03  
        101   3        -1.5168E+08  2.3406E+08 -7.8135E+07 -3.1700E-03  3.9938E-03 -2.9022E-03  
        101   4        -1.5026E+08  2.3456E+08 -7.8623E+07 -3.1518E-03  3.9948E-03 -2.9203E-03  
        102   1        -3.4219E+08 -3.5408E+07  3.6961E+07 -4.7366E-03  9.6068E-04  1.3728E-03  
        102   2        -3.3207E+08 -2.6764E+07  3.1963E+07 -4.6291E-03  1.0408E-03  1.1872E-03  
        102   3        -3.9967E+08  2.4171E+08 -5.1523E+07 -6.7455E-03  5.1659E-03 -1.9137E-03  
        102   4        -3.8754E+08  2.5146E+08 -5.7295E+07 -6.6140E-03  5.2532E-03 -2.1281E-03  
        103   1        -7.8685E+08 -2.9516E+08  2.1863E+08 -9.9758E-03 -8.4441E-04  8.1205E-03  
        103   2        -7.6543E+08 -2.8135E+08  2.0993E+08 -9.7289E-03 -7.3882E-04  7.7972E-03  
        103   3        -8.4098E+08  3.4554E+08 -1.2848E+08 -1.3495E-02  8.5405E-03 -4.7722E-03  
        103   4        -8.1603E+08  3.5962E+08 -1.3752E+08 -1.3199E-02  8.6347E-03 -5.1079E-03  
        104   1        -1.2533E+09 -3.6712E+08  3.7022E+08 -1.6331E-02  1.2659E-04  1.3751E-02  
        104   2        -1.2198E+09 -3.5485E+08  3.6377E+08 -1.5905E-02  1.5832E-04  1.3511E-02  
        104   3        -1.2812E+09  6.0854E+07 -4.0374E+08 -1.8564E-02  6.3604E-03 -1.4996E-02  
        104   4        -1.2455E+09  7.2246E+07 -4.0761E+08 -1.8103E-02  6.3700E-03 -1.5140E-02  
        105   1        -2.9100E+07  1.6490E+09  3.4543E+08 -7.4827E-03  2.3681E-02  1.2830E-02  
        105   2        -4.0061E+07  1.6145E+09  3.4909E+08 -7.4917E-03  2.3236E-02  1.2966E-02  
        105   3         3.7484E+08  1.6216E+09 -4.0659E+08 -1.5949E-03  2.1559E-02 -1.5102E-02  
        105   4         3.6307E+08  1.5893E+09 -4.0043E+08 -1.6246E-03  2.1148E-02 -1.4873E-02  
        106   1        -2.6975E+08  1.2033E+09  2.4554E+07 -9.0105E-03  1.8346E-02  9.1202E-04  
        106   2        -2.8397E+08  1.1776E+09  3.3662E+07 -9.1033E-03  1.8039E-02  1.2503E-03  
        106   3         3.6436E+08  1.1421E+09 -3.4190E+08  3.1028E-04  1.4755E-02 -1.2699E-02  
        106   4         3.5045E+08  1.1201E+09 -3.3309E+08  2.0612E-04  1.4499E-02 -1.2372E-02  
        107   1        -1.3839E+08  7.2799E+08 -9.3687E+07 -5.0970E-03  1.0993E-02 -3.4798E-03  
        107   2        -1.4997E+08  7.1314E+08 -8.6761E+07 -5.1988E-03  1.0831E-02 -3.2226E-03  
        107   3         1.8610E+08  6.5409E+08 -2.0847E+08 -1.4466E-04  8.5466E-03 -7.7432E-03  
        107   4         1.7584E+08  6.4171E+08 -2.0246E+08 -2.3823E-04  8.4136E-03 -7.5199E-03  
        108   1        -8.0830E+07  4.2518E+08 -8.9937E+07 -2.9769E-03  6.4205E-03 -3.3405E-03  
        108   2        -8.4946E+07  4.1982E+08 -8.7420E+07 -3.0127E-03  6.3614E-03 -3.2470E-03  
        108   3        -2.2574E+07  3.7736E+08 -1.1675E+08 -1.9398E-03  5.4876E-03 -4.3363E-03  
        108   4        -2.6110E+07  3.7287E+08 -1.1459E+08 -1.9710E-03  5.4386E-03 -4.2563E-03  
        109   1        -1.3057E+08  2.4955E+08 -6.7514E+07 -2.9348E-03  4.1245E-03 -2.5077E-03  
        109   2        -1.2934E+08  2.4982E+08 -6.7914E+07 -2.9183E-03  4.1232E-03 -2.5225E-03  
        109   3        -1.5562E+08  2.3903E+08 -8.2634E+07 -3.2475E-03  4.0816E-03 -3.0693E-03  
        109   4        -1.5413E+08  2.3937E+08 -8.3090E+07 -3.2277E-03  4.0801E-03 -3.0862E-03  
        110   1        -3.3065E+08 -2.0663E+07  2.2910E+07 -4.6350E-03  1.1219E-03  8.5095E-04  
        110   2        -3.2077E+08 -1.2291E+07  1.8052E+07 -4.5297E-03  1.1991E-03  6.7051E-04  
        110   3        -3.8532E+08  2.4915E+08 -6.6220E+07 -6.5723E-03  5.2106E-03 -2.4596E-03  
        110   4        -3.7348E+08  2.5858E+08 -7.1822E+07 -6.4437E-03  5.2947E-03 -2.6677E-03  
        111   1        -7.5593E+08 -2.8709E+08  2.0014E+08 -9.5686E-03 -8.6163E-04  7.4336E-03  
        111   2        -7.3482E+08 -2.7348E+08  1.9156E+08 -9.3254E-03 -7.5759E-04  7.1151E-03  
        111   3        -8.0365E+08  3.5031E+08 -1.4547E+08 -1.2982E-02  8.4487E-03 -5.4032E-03  
        111   4        -7.7910E+08  3.6417E+08 -1.5436E+08 -1.2691E-02  8.5414E-03 -5.7335E-03  
        112   1        -1.2018E+09 -3.6812E+08  3.5958E+08 -1.5591E-02 -1.0813E-04  1.3356E-02  
        112   2        -1.1687E+09 -3.5598E+08  3.5320E+08 -1.5170E-02 -7.6679E-05  1.3119E-02  
        112   3        -1.2256E+09  6.0040E+07 -4.1065E+08 -1.7766E-02  6.1103E-03 -1.5253E-02  
        112   4        -1.1903E+09  7.1294E+07 -4.1448E+08 -1.7310E-02  6.1198E-03 -1.5395E-02  
        113   1        -2.7057E+07  1.5957E+09  3.5189E+08 -7.2252E-03  2.2912E-02  1.3070E-02  
        113   2        -3.7890E+07  1.5617E+09  3.5551E+08 -7.2342E-03  2.2472E-02  1.3205E-02  
        113   3         3.7752E+08  1.5724E+09 -3.9675E+08 -1.3459E-03  2.0845E-02 -1.4737E-02  
        113   4         3.6587E+08  1.5405E+09 -3.9066E+08 -1.3755E-03  2.0439E-02 -1.4510E-02  
        114   1        -2.7326E+08  1.1648E+09  4.1280E+07 -8.8956E-03  1.7811E-02  1.5332E-03  
        114   2        -2.8726E+08  1.1395E+09  5.0254E+07 -8.9872E-03  1.7509E-02  1.8666E-03  
        114   3         3.5905E+08  1.1105E+09 -3.2372E+08  3.6996E-04  1.4326E-02 -1.2024E-02  
        114   4         3.4532E+08  1.0887E+09 -3.1502E+08  2.6712E-04  1.4073E-02 -1.1701E-02  
        115   1        -1.4541E+08  7.0933E+08 -7.7095E+07 -5.1173E-03  1.0757E-02 -2.8635E-03  
        115   2        -1.5669E+08  6.9481E+08 -7.0340E+07 -5.2162E-03  1.0597E-02 -2.6126E-03  
        115   3         1.7345E+08  6.3963E+08 -1.9231E+08 -2.6337E-04  8.3942E-03 -7.1428E-03  
        115   4         1.6345E+08  6.2750E+08 -1.8643E+08 -3.5432E-04  8.2638E-03 -6.9247E-03  
        116   1        -8.7198E+07  4.2363E+08 -8.0880E+07 -3.0613E-03  6.4256E-03 -3.0041E-03  
        116   2        -9.1136E+07  4.1828E+08 -7.8420E+07 -3.0946E-03  6.3660E-03 -2.9127E-03  
        116   3        -3.3525E+07  3.7473E+08 -1.0999E+08 -2.0849E-03  5.4970E-03 -4.0854E-03  
        116   4        -3.6908E+07  3.7025E+08 -1.0788E+08 -2.1140E-03  5.4475E-03 -4.0071E-03  
        117   1        -1.3066E+08  2.5911E+08 -6.9408E+07 -2.9771E-03  4.2616E-03 -2.5780E-03  
        117   2        -1.2937E+08  2.5928E+08 -6.9791E+07 -2.9594E-03  4.2584E-03 -2.5922E-03  
        117   3        -1.5867E+08  2.4324E+08 -8.6784E+07 -3.3091E-03  4.1549E-03 -3.2234E-03  
        117   4        -1.5711E+08  2.4345E+08 -8.7216E+07 -3.2878E-03  4.1512E-03 -3.2395E-03  
        118   1        -3.1892E+08 -6.6668E+06  9.5637E+06 -4.5275E-03  1.2716E-03  3.5522E-04  
        118   2        -3.0927E+08  1.4441E+06  4.8404E+06 -4.4243E-03  1.3461E-03  1.7979E-04  
        118   3        -3.7091E+08  2.5606E+08 -8.0162E+07 -6.3961E-03  5.2476E-03 -2.9775E-03  
        118   4        -3.5936E+08  2.6519E+08 -8.5601E+07 -6.2702E-03  5.3286E-03 -3.1795E-03  
        119   1        -7.2521E+08 -2.7920E+08  1.8234E+08 -9.1635E-03 -8.8049E-04  6.7726E-03  
        119   2        -7.0441E+08 -2.6578E+08  1.7389E+08 -8.9239E-03 -7.7796E-04  6.4587E-03  
        119   3        -7.6673E+08  3.5502E+08 -1.6181E+08 -1.2475E-02  8.3576E-03 -6.0100E-03  
        119   4        -7.4256E+08  3.6865E+08 -1.7056E+08 -1.2188E-02  8.4489E-03 -6.3351E-03  
        120   1        -1.1509E+09 -3.6893E+08  3.4933E+08 -1.4860E-02 -3.3802E-04  1.2975E-02  
        120   2        -1.1181E+09 -3.5692E+08  3.4301E+08 -1.4444E-02 -3.0684E-04  1.2740E-02  
        120   3        -1.1706E+09  5.9468E+07 -4.1739E+08 -1.6977E-02  5.8663E-03 -1.5503E-02  
        120   4        -1.1357E+09  7.0588E+07 -4.2118E+08 -1.6527E-02  5.8757E-03 -1.5644E-02  
        121   1        -2.5244E+07  1.5430E+09  3.5821E+08 -6.9734E-03  2.2151E-02  1.3305E-02  
        121   2        -3.5953E+07  1.5094E+09  3.6179E+08 -6.9823E-03  2.1716E-02  1.3438E-02  
        121   3         3.8000E+08  1.5237E+09 -3.8726E+08 -1.1017E-03  2.0139E-02 -1.4384E-02  
        121   4         3.6847E+08  1.4921E+09 -3.8122E+08 -1.1310E-03  1.9737E-02 -1.4160E-02  
        122   1        -2.7672E+08  1.1267E+09  5.7429E+07 -8.7821E-03  1.7282E-02  2.1331E-03  
        122   2        -2.9053E+08  1.1018E+09  6.6274E+07 -8.8723E-03  1.6985E-02  2.4616E-03  
        122   3         3.5383E+08  1.0791E+09 -3.0616E+08  4.2995E-04  1.3899E-02 -1.1371E-02  
        122   4         3.4027E+08  1.0576E+09 -2.9757E+08  3.2839E-04  1.3651E-02 -1.1053E-02  
        123   1        -1.5200E+08  6.9073E+08 -6.1227E+07 -5.1316E-03  1.0519E-02 -2.2741E-03  
        123   2        -1.6298E+08  6.7651E+08 -5.4635E+07 -5.2277E-03  1.0363E-02 -2.0293E-03  
        123   3         1.6143E+08  6.2505E+08 -1.7684E+08 -3.7262E-04  8.2374E-03 -6.5683E-03  
        123   4         1.5168E+08  6.1317E+08 -1.7110E+08 -4.6106E-04  8.1095E-03 -6.3552E-03  
        124   1        -9.2872E+07  4.2134E+08 -7.2244E+07 -3.1325E-03  6.4172E-03 -2.6833E-03  
        124   2        -9.6655E+07  4.1599E+08 -6.9830E+07 -3.1636E-03  6.3569E-03 -2.5937E-03  
        124   3        -4.3266E+07  3.7149E+08 -1.0354E+08 -2.2102E-03  5.4924E-03 -3.8458E-03  
        124   4        -4.6515E+07  3.6701E+08 -1.0147E+08 -2.2374E-03  5.4424E-03 -3.7688E-03  
        125   1        -1.3013E+08  2.6744E+08 -7.1096E+07 -3.0052E-03  4.3783E-03 -2.6407E-03  
        125   2        -1.2878E+08  2.6751E+08 -7.1467E+07 -2.9862E-03  4.3734E-03 -2.6545E-03  
        125   3        -1.6087E+08  2.4675E+08 -9.0596E+07 -3.3556E-03  4.2145E-03 -3.3650E-03  
        125   4        -1.5924E+08  2.4686E+08 -9.1013E+07 -3.3327E-03  4.2090E-03 -3.3805E-03  
        126   1        -3.0703E+08  6.5955E+06 -3.0940E+06 -4.4145E-03  1.4101E-03 -1.1492E-04  
        126   2        -2.9760E+08  1.4456E+07 -7.6882E+06 -4.3134E-03  1.4819E-03 -2.8556E-04  
        126   3        -3.5647E+08  2.6246E+08 -9.3368E+07 -6.2173E-03  5.2772E-03 -3.4680E-03  
        126   4        -3.4519E+08  2.7131E+08 -9.8650E+07 -6.0940E-03  5.3552E-03 -3.6641E-03  
        127   1        -6.9470E+08 -2.7147E+08  1.6522E+08 -8.7608E-03 -9.0094E-04  6.1368E-03  
        127   2        -6.7419E+08 -2.5825E+08  1.5689E+08 -8.5245E-03 -7.9986E-04  5.8273E-03  
        127   3        -7.3019E+08  3.5965E+08 -1.7751E+08 -1.1973E-02  8.2672E-03 -6.5934E-03  
        127   4        -7.0641E+08  3.7307E+08 -1.8613E+08 -1.1690E-02  8.3570E-03 -6.9134E-03  
        128   1        -1.1004E+09 -3.6956E+08  3.3947E+08 -1.4136E-02 -5.6327E-04  1.2609E-02  
        128   2        -1.0680E+09 -3.5767E+08  3.3321E+08 -1.3725E-02 -5.3236E-04  1.2376E-02  
        128   3        -1.1161E+09  5.9125E+07 -4.2397E+08 -1.6198E-02  5.6280E-03 -1.5748E-02  
        128   4        -1.0816E+09  7.0118E+07 -4.2772E+08 -1.5753E-02  5.6373E-03 -1.5887E-02  
        129   1        -2.3650E+07  1.4908E+09  3.6438E+08 -6.7271E-03  2.1399E-02  1.3534E-02  
        129   2        -3.4240E+07  1.4576E+09  3.6794E+08 -6.7358E-03  2.0969E-02  1.3666E-02  
        129   3         3.8229E+08  1.4755E+09 -3.7809E+08 -8.6208E-04  1.9440E-02 -1.4043E-02  
        129   4         3.7088E+08  1.4442E+09 -3.7211E+08 -8.9119E-04  1.9042E-02 -1.3821E-02  
        130   1        -2.8015E+08  1.0891E+09  7.3015E+07 -8.6697E-03  1.6759E-02  2.7120E-03  
        130   2        -2.9376E+08  1.0645E+09  8.1735E+07 -8.7588E-03  1.6466E-02  3.0359E-03  
        130   3         3.4869E+08  1.0479E+09 -2.8920E+08  4.9024E-04  1.3476E-02 -1.0742E-02  
        130   4         3.3531E+08  1.0267E+09 -2.8073E+08  3.8993E-04  1.3230E-02 -1.0427E-02  
        131   1        -1.5815E+08  6.7220E+08 -4.6065E+07 -5.1401E-03  1.0281E-02 -1.7110E-03  
        131   2        -1.6886E+08  6.5827E+08 -3.9630E+07 -5.2334E-03  1.0128E-02 -1.4720E-03  
        131   3         1.5003E+08  6.1037E+08 -1.6205E+08 -4.7265E-04  8.0766E-03 -6.0191E-03  
        131   4         1.4051E+08  5.9872E+08 -1.5644E+08 -5.5868E-04  7.9510E-03 -5.8108E-03  
        132   1        -9.7890E+07  4.1835E+08 -6.4013E+07 -3.1914E-03  6.3959E-03 -2.3776E-03  
        132   2        -1.0154E+08  4.1299E+08 -6.1638E+07 -3.2205E-03  6.3350E-03 -2.2894E-03  
        132   3        -5.1862E+07  3.6769E+08 -9.7380E+07 -2.3167E-03  5.4750E-03 -3.6170E-03  
        132   4        -5.4996E+07  3.6320E+08 -9.5338E+07 -2.3422E-03  5.4243E-03 -3.5411E-03  
        133   1        -1.2902E+08  2.7459E+08 -7.2582E+07 -3.0200E-03  4.4757E-03 -2.6959E-03  
        133   2        -1.2761E+08  2.7458E+08 -7.2948E+07 -2.9998E-03  4.4694E-03 -2.7095E-03  
        133   3        -1.6227E+08  2.4960E+08 -9.4083E+07 -3.3878E-03  4.2611E-03 -3.4945E-03  
        133   4        -1.6056E+08  2.4961E+08 -9.4490E+07 -3.3635E-03  4.2540E-03 -3.5096E-03  
        134   1        -2.9500E+08  1.9140E+07 -1.5079E+07 -4.2963E-03  1.5377E-03 -5.6007E-04  
        134   2        -2.8578E+08  2.6761E+07 -1.9549E+07 -4.1972E-03  1.6071E-03 -7.2612E-04  
        134   3        -3.4200E+08  2.6838E+08 -1.0586E+08 -6.0359E-03  5.2997E-03 -3.9318E-03  
        134   4        -3.3098E+08  2.7695E+08 -1.1099E+08 -5.9152E-03  5.3749E-03 -4.1224E-03  
        135   1        -6.6440E+08 -2.6392E+08  1.4877E+08 -8.3603E-03 -9.2293E-04  5.5257E-03  
        135   2        -6.4418E+08 -2.5088E+08  1.4055E+08 -8.1274E-03 -8.2326E-04  5.2206E-03  
        135   3        -6.9405E+08  3.6420E+08 -1.9260E+08 -1.1476E-02  8.1774E-03 -7.1537E-03  
        135   4        -6.7063E+08  3.7742E+08 -2.0108E+08 -1.1198E-02  8.2658E-03 -7.4688E-03  
        136   1        -1.0504E+09 -3.7001E+08  3.2998E+08 -1.3420E-02 -7.8408E-04  1.2256E-02  
        136   2        -1.0184E+09 -3.5825E+08  3.2378E+08 -1.3013E-02 -7.5342E-04  1.2026E-02  
        136   3        -1.0622E+09  5.9001E+07 -4.3040E+08 -1.5427E-02  5.3952E-03 -1.5986E-02  
        136   4        -1.0281E+09  6.9871E+07 -4.3411E+08 -1.4987E-02  5.4044E-03 -1.6124E-02  
        137   1        -2.2266E+07  1.4392E+09  3.7042E+08 -6.4859E-03  2.0655E-02  1.3759E-02  
        137   2        -3.2741E+07  1.4063E+09  3.7395E+08 -6.4946E-03  2.0230E-02  1.3889E-02  
        137   3         3.8441E+08  1.4276E+09 -3.6925E+08 -6.2685E-04  1.8747E-02 -1.3715E-02  
        137   4         3.7310E+08  1.3967E+09 -3.6332E+08 -6.5574E-04  1.8354E-02 -1.3495E-02  
        138   1        -2.8354E+08  1.0518E+09  8.8050E+07 -8.5586E-03  1.6242E-02  3.2704E-03  
        138   2        -2.9696E+08  1.0276E+09  9.6648E+07 -8.6464E-03  1.5953E-02  3.5898E-03  
        138   3         3.4364E+08  1.0169E+09 -2.7284E+08  5.5083E-04  1.3055E-02 -1.0134E-02  
        138   4         3.3043E+08  9.9603E+08 -2.6448E+08  4.5173E-04  1.2813E-02 -9.8234E-03  
        139   1        -1.6389E+08  6.5373E+08 -3.1592E+07 -5.1430E-03  1.0041E-02 -1.1734E-03  
        139   2        -1.7433E+08  6.4009E+08 -2.5307E+07 -5.2337E-03  9.8913E-03 -9.3997E-04  
        139   3         1.3922E+08  5.9560E+08 -1.4793E+08 -5.6369E-04  7.9120E-03 -5.4946E-03  
        139   4         1.2994E+08  5.8419E+08 -1.4245E+08 -6.4741E-04  7.7886E-03 -5.2909E-03  
        140   1        -1.0229E+08  4.1469E+08 -5.6171E+07 -3.2386E-03  6.3626E-03 -2.0864E-03  
        140   2        -1.0583E+08  4.0932E+08 -5.3828E+07 -3.2660E-03  6.3009E-03 -1.9993E-03  
        140   3        -5.9377E+07  3.6337E+08 -9.1504E+07 -2.4056E-03  5.4455E-03 -3.3987E-03  
        140   4        -6.2411E+07  3.5887E+08 -8.9486E+07 -2.4296E-03  5.3942E-03 -3.3238E-03  
        141   1        -1.2739E+08  2.8063E+08 -7.3873E+07 -3.0226E-03  4.5550E-03 -2.7439E-03  
        141   2        -1.2591E+08  2.8055E+08 -7.4238E+07 -3.0011E-03  4.5475E-03 -2.7574E-03  
        141   3        -1.6292E+08  2.5182E+08 -9.7254E+07 -3.4066E-03  4.2956E-03 -3.6123E-03  
        141   4        -1.6113E+08  2.5175E+08 -9.7658E+07 -3.3808E-03  4.2870E-03 -3.6273E-03  
        142   1        -2.8285E+08  3.0985E+07 -2.6407E+07 -4.1735E-03  1.6549E-03 -9.8082E-04  
        142   2        -2.7383E+08  3.8376E+07 -3.0759E+07 -4.0763E-03  1.7218E-03 -1.1425E-03  
        142   3        -3.2752E+08  2.7382E+08 -1.1764E+08 -5.8524E-03  5.3153E-03 -4.3696E-03  
        142   4        -3.1674E+08  2.8213E+08 -1.2263E+08 -5.7340E-03  5.3879E-03 -4.5549E-03  
        143   1        -6.3431E+08 -2.5654E+08  1.3297E+08 -7.9621E-03 -9.4641E-04  4.9387E-03  
        143   2        -6.1437E+08 -2.4368E+08  1.2487E+08 -7.7324E-03 -8.4812E-04  4.6379E-03  
        143   3        -6.5829E+08  3.6868E+08 -2.0708E+08 -1.0984E-02  8.0881E-03 -7.6915E-03  
        143   4        -6.3522E+08  3.8170E+08 -2.1543E+08 -1.0710E-02  8.1752E-03 -8.0018E-03  
        144   1        -1.0008E+09 -3.7029E+08  3.2086E+08 -1.2711E-02 -1.0006E-03  1.1918E-02  
        144   2        -9.6910E+08 -3.5865E+08  3.1472E+08 -1.2307E-02 -9.7021E-04  1.1690E-02  
        144   3        -1.0088E+09  5.9087E+07 -4.3667E+08 -1.4665E-02  5.1677E-03 -1.6219E-02  
        144   4        -9.7514E+08  6.9838E+07 -4.4034E+08 -1.4230E-02  5.1768E-03 -1.6356E-02  
        145   1        -2.1082E+07  1.3880E+09  3.7633E+08 -6.2498E-03  1.9919E-02  1.3978E-02  
        145   2        -3.1446E+07  1.3555E+09  3.7982E+08 -6.2584E-03  1.9499E-02  1.4108E-02  
        145   3         3.8635E+08  1.3802E+09 -3.6072E+08 -3.9587E-04  1.8061E-02 -1.3398E-02  
        145   4         3.7515E+08  1.3496E+09 -3.5485E+08 -4.2456E-04  1.7672E-02 -1.3180E-02  
        146   1        -2.8689E+08  1.0150E+09  1.0255E+08 -8.4485E-03  1.5730E-02  3.8089E-03  
        146   2        -3.0012E+08  9.9113E+08  1.1103E+08 -8.5352E-03  1.5445E-02  4.1238E-03  
        146   3         3.3868E+08  9.8621E+08 -2.5706E+08  6.1171E-04  1.2637E-02 -9.5480E-03  
        146   4         3.2563E+08  9.6556E+08 -2.4880E+08  5.1379E-04  1.2398E-02 -9.2413E-03  
        147   1        -1.6922E+08  6.3535E+08 -1.7788E+07 -5.1404E-03  9.8016E-03 -6.6070E-04  
        147   2        -1.7941E+08  6.2198E+08 -1.1648E+07 -5.2286E-03  9.6543E-03 -4.3262E-04  
        147   3         1.2901E+08  5.8077E+08 -1.3446E+08 -6.4600E-04  7.7439E-03 -4.9941E-03  
        147   4         1.1995E+08  5.6957E+08 -1.2909E+08 -7.2751E-04  7.6227E-03 -4.7948E-03  
        148   1        -1.0611E+08  4.1041E+08 -4.8706E+07 -3.2748E-03  6.3178E-03 -1.8091E-03  
        148   2        -1.0955E+08  4.0502E+08 -4.6388E+07 -3.3008E-03  6.2554E-03 -1.7230E-03  
        148   3        -6.5871E+07  3.5859E+08 -8.5901E+07 -2.4778E-03  5.4050E-03 -3.1906E-03  
        148   4        -6.8821E+07  3.5407E+08 -8.3902E+07 -2.5006E-03  5.3531E-03 -3.1164E-03  
        149   1        -1.2528E+08  2.8563E+08 -7.4974E+07 -3.0138E-03  4.6173E-03 -2.7847E-03  
        149   2        -1.2373E+08  2.8549E+08 -7.5342E+07 -2.9911E-03  4.6088E-03 -2.7984E-03  
        149   3        -1.6286E+08  2.5344E+08 -1.0012E+08 -3.4127E-03  4.3186E-03 -3.7188E-03  
        149   4        -1.6099E+08  2.5332E+08 -1.0053E+08 -3.3855E-03  4.3089E-03 -3.7339E-03  
        150   1        -2.7060E+08  4.2146E+07 -3.7093E+07 -4.0463E-03  1.7618E-03 -1.3778E-03  
        150   2        -2.6177E+08  4.9318E+07 -4.1332E+07 -3.9509E-03  1.8264E-03 -1.5352E-03  
        150   3        -3.1303E+08  2.7880E+08 -1.2875E+08 -5.6668E-03  5.3244E-03 -4.7821E-03  
        150   4        -3.0249E+08  2.8686E+08 -1.3360E+08 -5.5507E-03  5.3943E-03 -4.9623E-03  
        151   1        -6.0443E+08 -2.4932E+08  1.1780E+08 -7.5662E-03 -9.7135E-04  4.3755E-03  
        151   2        -5.8477E+08 -2.3664E+08  1.0981E+08 -7.3397E-03 -8.7440E-04  4.0787E-03  
        151   3        -6.2290E+08  3.7309E+08 -2.2097E+08 -1.0498E-02  7.9994E-03 -8.2073E-03  
        151   4        -6.0019E+08  3.8591E+08 -2.2919E+08 -1.0228E-02  8.0852E-03 -8.5130E-03  
        152   1        -9.5167E+08 -3.7042E+08  3.1210E+08 -1.2008E-02 -1.2131E-03  1.1592E-02  
        152   2        -9.2026E+08 -3.5888E+08  3.0602E+08 -1.1609E-02 -1.1829E-03  1.1366E-02  
        152   3        -9.5597E+08  5.9372E+07 -4.4279E+08 -1.3911E-02  4.9452E-03 -1.6447E-02  
        152   4        -9.2264E+08  7.0010E+07 -4.4643E+08 -1.3481E-02  4.9543E-03 -1.6582E-02  
        153   1        -2.0090E+07  1.3373E+09  3.8211E+08 -6.0185E-03  1.9191E-02  1.4193E-02  
        153   2        -3.0348E+07  1.3052E+09  3.8557E+08 -6.0271E-03  1.8775E-02  1.4321E-02  
        153   3         3.8812E+08  1.3332E+09 -3.5251E+08 -1.6898E-04  1.7382E-02 -1.3093E-02  
        153   4         3.7703E+08  1.3028E+09 -3.4669E+08 -1.9747E-04  1.6996E-02 -1.2877E-02  
        154   1        -2.9020E+08  9.7857E+08  1.1651E+08 -8.3396E-03  1.5223E-02  4.3277E-03  
        154   2        -3.0325E+08  9.5503E+08  1.2488E+08 -8.4251E-03  1.4943E-02  4.6383E-03  
        154   3         3.3381E+08  9.5569E+08 -2.4185E+08  6.7289E-04  1.2222E-02 -8.9831E-03  
        154   4         3.2092E+08  9.3532E+08 -2.3370E+08  5.7611E-04  1.1986E-02 -8.6802E-03  
        155   1        -1.7417E+08  6.1704E+08 -4.6382E+06 -5.1326E-03  9.5613E-03 -1.7228E-04  
        155   2        -1.8411E+08  6.0393E+08  1.3645E+06 -5.2185E-03  9.4166E-03  5.0680E-05  
        155   3         1.1938E+08  5.6589E+08 -1.2162E+08 -7.1983E-04  7.5726E-03 -4.5172E-03  
        155   4         1.1052E+08  5.5490E+08 -1.1636E+08 -7.9923E-04  7.4535E-03 -4.3221E-03  
        156   1        -1.0939E+08  4.0555E+08 -4.1605E+07 -3.3007E-03  6.2623E-03 -1.5453E-03  
        156   2        -1.1274E+08  4.0013E+08 -3.9306E+07 -3.3254E-03  6.1993E-03 -1.4600E-03  
        156   3        -7.1404E+07  3.5337E+08 -8.0562E+07 -2.5345E-03  5.3542E-03 -2.9923E-03  
        156   4        -7.4282E+07  3.4884E+08 -7.8578E+07 -2.5562E-03  5.3017E-03 -2.9186E-03  
        157   1        -1.2273E+08  2.8964E+08 -7.5890E+07 -2.9945E-03  4.6636E-03 -2.8188E-03  
        157   2        -1.2111E+08  2.8946E+08 -7.6265E+07 -2.9707E-03  4.6542E-03 -2.8327E-03  
        157   3        -1.6214E+08  2.5452E+08 -1.0269E+08 -3.4070E-03  4.3308E-03 -3.8143E-03  
        157   4        -1.6018E+08  2.5435E+08 -1.0310E+08 -3.3784E-03  4.3201E-03 -3.8296E-03  
        158   1        -2.5827E+08  5.2642E+07 -4.7154E+07 -3.9151E-03  1.8589E-03 -1.7514E-03  
        158   2        -2.4962E+08  5.9604E+07 -5.1284E+07 -3.8215E-03  1.9213E-03 -1.9048E-03  
        158   3        -2.9856E+08  2.8333E+08 -1.3919E+08 -5.4794E-03  5.3271E-03 -5.1698E-03  
        158   4        -2.8825E+08  2.9115E+08 -1.4391E+08 -5.3656E-03  5.3946E-03 -5.3451E-03  
        159   1        -5.7477E+08 -2.4227E+08  1.0326E+08 -7.1728E-03 -9.9772E-04  3.8354E-03  
        159   2        -5.5538E+08 -2.2976E+08  9.5377E+07 -6.9493E-03 -9.0206E-04  3.5426E-03  
        159   3        -5.8789E+08  3.7741E+08 -2.3427E+08 -1.0016E-02  7.9112E-03 -8.7015E-03  
        159   4        -5.6551E+08  3.9005E+08 -2.4238E+08 -9.7504E-03  7.9957E-03 -9.0027E-03  
        160   1        -9.0292E+08 -3.7039E+08  3.0369E+08 -1.1311E-02 -1.4216E-03  1.1280E-02  
        160   2        -8.7181E+08 -3.5896E+08  2.9766E+08 -1.0916E-02 -1.3917E-03  1.1056E-02  
        160   3        -9.0361E+08  5.9847E+07 -4.4877E+08 -1.3165E-02  4.7276E-03 -1.6669E-02  
        160   4        -8.7063E+08  7.0375E+07 -4.5238E+08 -1.2739E-02  4.7366E-03 -1.6803E-02  
        161   1        -1.9281E+07  1.2872E+09  3.8776E+08 -5.7918E-03  1.8471E-02  1.4403E-02  
        161   2        -2.9436E+07  1.2553E+09  3.9120E+08 -5.8003E-03  1.8059E-02  1.4530E-02  
        161   3         3.8973E+08  1.2865E+09 -3.4460E+08  5.3952E-05  1.6709E-02 -1.2799E-02  
        161   4         3.7874E+08  1.2565E+09 -3.3882E+08  2.5658E-05  1.6326E-02 -1.2585E-02  
        162   1        -2.9346E+08  9.4252E+08  1.2996E+08 -8.2317E-03  1.4722E-02  4.8272E-03  
        162   2        -3.0634E+08  9.1930E+08  1.3822E+08 -8.3161E-03  1.4446E-02  5.1337E-03  
        162   3         3.2903E+08  9.2541E+08 -2.2721E+08  7.3437E-04  1.1810E-02 -8.4391E-03  
        162   4         3.1630E+08  9.0529E+08 -2.1915E+08  6.3872E-04  1.1577E-02 -8.1399E-03  
        163   1        -1.7874E+08  5.9882E+08  7.8748E+06 -5.1198E-03  9.3206E-03  2.9249E-04  
        163   2        -1.8845E+08  5.8596E+08  1.3745E+07 -5.2034E-03  9.1785E-03  5.1054E-04  
        163   3         1.1031E+08  5.5098E+08 -1.0939E+08 -7.8546E-04  7.3984E-03 -4.0631E-03  
        163   4         1.0166E+08  5.4019E+08 -1.0425E+08 -8.6283E-04  7.2813E-03 -3.8721E-03  
        164   1        -1.1214E+08  4.0013E+08 -3.4855E+07 -3.3169E-03  6.1968E-03 -1.2946E-03  
        164   2        -1.1543E+08  3.9469E+08 -3.2572E+07 -3.3405E-03  6.1331E-03 -1.2098E-03  
        164   3        -7.6033E+07  3.4777E+08 -7.5479E+07 -2.5766E-03  5.2941E-03 -2.8035E-03  
        164   4        -7.8852E+07  3.4321E+08 -7.3505E+07 -2.5974E-03  5.2410E-03 -2.7302E-03  
        165   1        -1.1978E+08  2.9272E+08 -7.6626E+07 -2.9657E-03  4.6950E-03 -2.8461E-03  
        165   2        -1.1810E+08  2.9251E+08 -7.7011E+07 -2.9407E-03  4.6849E-03 -2.8604E-03  
        165   3        -1.6080E+08  2.5507E+08 -1.0498E+08 -3.3902E-03  4.3330E-03 -3.8991E-03  
        165   4        -1.5876E+08  2.5487E+08 -1.0540E+08 -3.3603E-03  4.3214E-03 -3.9148E-03  
        166   1        -2.4587E+08  6.2493E+07 -5.6605E+07 -3.7803E-03  1.9465E-03 -2.1025E-03  
        166   2        -2.3740E+08  6.9253E+07 -6.0630E+07 -3.6883E-03  2.0068E-03 -2.2520E-03  
        166   3        -2.8410E+08  2.8743E+08 -1.4898E+08 -5.2904E-03  5.3237E-03 -5.5334E-03  
        166   4        -2.7401E+08  2.9502E+08 -1.5357E+08 -5.1787E-03  5.3889E-03 -5.7040E-03  
        167   1        -5.4533E+08 -2.3539E+08  8.9330E+07 -6.7817E-03 -1.0255E-03  3.3180E-03  
        167   2        -5.2619E+08 -2.2303E+08  8.1551E+07 -6.5612E-03 -9.3110E-04  3.0290E-03  
        167   3        -5.5325E+08  3.8166E+08 -2.4701E+08 -9.5393E-03  7.8234E-03 -9.1745E-03  
        167   4        -5.3119E+08  3.9411E+08 -2.5500E+08 -9.2776E-03  7.9067E-03 -9.4713E-03  
        168   1        -8.5456E+08 -3.7021E+08  2.9563E+08 -1.0621E-02 -1.6264E-03  1.0980E-02  
        168   2        -8.2374E+08 -3.5889E+08  2.8965E+08 -1.0230E-02 -1.5966E-03  1.0759E-02  
        168   3        -8.5173E+08  6.0501E+07 -4.5461E+08 -1.2427E-02  4.5146E-03 -1.6886E-02  
        168   4        -8.1907E+08  7.0924E+07 -4.5819E+08 -1.2005E-02  4.5235E-03 -1.7018E-02  
        169   1        -1.8648E+07  1.2374E+09  3.9330E+08 -5.5696E-03  1.7757E-02  1.4608E-02  
        169   2        -2.8703E+07  1.2059E+09  3.9670E+08 -5.5780E-03  1.7350E-02  1.4735E-02  
        169   3         3.9119E+08  1.2403E+09 -3.3699E+08  2.7308E-04  1.6041E-02 -1.2517E-02  
        169   4         3.8029E+08  1.2105E+09 -3.3126E+08  2.4497E-04  1.5663E-02 -1.2304E-02  
        170   1        -2.9668E+08  9.0685E+08  1.4291E+08 -8.1248E-03  1.4226E-02  5.3079E-03  
        170   2        -3.0938E+08  8.8395E+08  1.5105E+08 -8.2081E-03  1.3954E-02  5.6104E-03  
        170   3         3.2434E+08  8.9536E+08 -2.1311E+08  7.9617E-04  1.1401E-02 -7.9154E-03  
        170   4         3.1176E+08  8.7548E+08 -2.0515E+08  7.0160E-04  1.1171E-02 -7.6198E-03  
        171   1        -1.8294E+08  5.8070E+08  1.9767E+07 -5.1022E-03  9.0797E-03  7.3420E-04  
        171   2        -1.9243E+08  5.6808E+08  2.5511E+07 -5.1836E-03  8.9401E-03  9.4753E-04  
        171   3         1.0179E+08  5.3605E+08 -9.7767E+07 -8.4315E-04  7.2216E-03 -3.6314E-03  
        171   4         9.3334E+07  5.2545E+08 -9.2729E+07 -9.1858E-04  7.1064E-03 -3.4442E-03  
        172   1        -1.1442E+08  3.9421E+08 -2.8446E+07 -3.3240E-03  6.1220E-03 -1.0566E-03  
        172   2        -1.1765E+08  3.8874E+08 -2.6173E+07 -3.3467E-03  6.0577E-03 -9.7215E-04  
        172   3        -7.9815E+07  3.4183E+08 -7.0643E+07 -2.6052E-03  5.2253E-03 -2.6239E-03  
        172   4        -8.2585E+07  3.3724E+08 -6.8676E+07 -2.6251E-03  5.1717E-03 -2.5508E-03  
        173   1        -1.1649E+08  2.9492E+08 -7.7188E+07 -2.9280E-03  4.7124E-03 -2.8670E-03  
        173   2        -1.1473E+08  2.9470E+08 -7.7585E+07 -2.9020E-03  4.7017E-03 -2.8817E-03  
        173   3        -1.5888E+08  2.5513E+08 -1.0698E+08 -3.3631E-03  4.3256E-03 -3.9736E-03  
        173   4        -1.5676E+08  2.5491E+08 -1.0742E+08 -3.3319E-03  4.3134E-03 -3.9898E-03  
        174   1        -2.3343E+08  7.1716E+07 -6.5461E+07 -3.6421E-03  2.0249E-03 -2.4314E-03  
        174   2        -2.2514E+08  7.8283E+07 -6.9386E+07 -3.5517E-03  2.0832E-03 -2.5772E-03  
        174   3        -2.6966E+08  2.9111E+08 -1.5813E+08 -5.1000E-03  5.3145E-03 -5.8735E-03  
        174   4        -2.5979E+08  2.9848E+08 -1.6260E+08 -4.9904E-03  5.3774E-03 -6.0396E-03  
        175   1        -5.1611E+08 -2.2866E+08  7.5998E+07 -6.3931E-03 -1.0547E-03  2.8228E-03  
        175   2        -4.9722E+08 -2.1647E+08  6.8320E+07 -6.1754E-03 -9.6147E-04  2.5376E-03  
        175   3        -5.1897E+08  3.8583E+08 -2.5918E+08 -9.0675E-03  7.7360E-03 -9.6268E-03  
        175   4        -4.9723E+08  3.9810E+08 -2.6706E+08 -8.8095E-03  7.8182E-03 -9.9194E-03  
        176   1        -8.0657E+08 -3.6990E+08  2.8791E+08 -9.9372E-03 -1.8275E-03  1.0694E-02  
        176   2        -7.7604E+08 -3.5867E+08  2.8198E+08 -9.5491E-03 -1.7980E-03  1.0474E-02  
        176   3        -8.0030E+08  6.1327E+07 -4.6031E+08 -1.1696E-02  4.3060E-03 -1.7097E-02  
[...]
       431       2.1539E-02   1.174       0.000       0.000     
       432        0.000       1.310     -1.1748E+07   0.000     
       433       -1.189       0.000       0.000     -1.0709E+07 
       434       -1.064      3.5859E-03   0.000       0.000     
       435      -0.7802      3.4807E-02   0.000       0.000     
       436      -0.4439      9.1991E-02   0.000       0.000     
       437      -0.1056      0.1690       0.000       0.000     
       438      -3.4920E-02  0.5146       0.000       0.000     
       439       1.1675E-02  0.8674       0.000       0.000     
       440       2.4352E-02   1.173       0.000       0.000     
       441        0.000       1.310     -1.4062E+07   0.000     
       442       -1.189       0.000       0.000     -8.5305E+06 
       443       -1.063      1.0080E-03   0.000       0.000     
       444      -0.7766      3.0161E-02   0.000       0.000     
       445      -0.4376      8.5316E-02   0.000       0.000     
       446      -9.6439E-02  0.1599       0.000       0.000     
       447      -2.8048E-02  0.5082       0.000       0.000     
       448       1.6619E-02  0.8636       0.000       0.000     
       449       2.7188E-02   1.172       0.000       0.000     
       450        0.000       1.311     -1.6374E+07   0.000     
       451       -1.189       0.000       0.000     -6.3553E+06 
       452       -1.062     -1.5904E-03   0.000       0.000     
       453      -0.7729      2.5493E-02   0.000       0.000     
       454      -0.4313      7.8625E-02   0.000       0.000     
       455      -8.7272E-02  0.1508       0.000       0.000     
       456      -2.1158E-02  0.5017       0.000       0.000     
       457       2.1587E-02  0.8597       0.000       0.000     
       458       3.0047E-02   1.171       0.000       0.000     
       459        0.000       1.311     -1.8684E+07   0.000     
       460       -1.189       0.000       0.000     -4.1824E+06 
       461       -1.060     -4.2097E-03   0.000       0.000     
       462      -0.7693      2.0803E-02   0.000       0.000     
       463      -0.4250      7.1916E-02   0.000       0.000     
       464      -7.8093E-02  0.1417       0.000       0.000     
       465      -1.4249E-02  0.4953       0.000       0.000     
       466       2.6579E-02  0.8558       0.000       0.000     
       467       3.2931E-02   1.169       0.000       0.000     
       468        0.000       1.311     -2.0995E+07   0.000     
       469       -1.189       0.000       0.000     -2.0114E+06 
       470       -1.059     -6.8504E-03   0.000       0.000     
       471      -0.7656      1.6091E-02   0.000       0.000     
       472      -0.4187      6.5190E-02   0.000       0.000     
       473      -6.8903E-02  0.1326       0.000       0.000     
       474      -7.3226E-03  0.4888       0.000       0.000     
       475       3.1598E-02  0.8519       0.000       0.000     
       476       3.5840E-02   1.168       0.000       0.000     
       477        0.000       1.311     -2.3305E+07   0.000     
       478       -1.190       0.000       0.000      1.5812E+05 
       479       -1.058     -9.5130E-03   0.000       0.000     
       480      -0.7619      1.1355E-02   0.000       0.000     
       481      -0.4123      5.8446E-02   0.000       0.000     
       482      -5.9701E-02  0.1235       0.000       0.000     
       483      -3.7758E-04  0.4824       0.000       0.000     
       484       3.6641E-02  0.8480       0.000       0.000     
       485       3.8774E-02   1.167       0.000       0.000     
       486        0.000       1.311     -2.5615E+07   0.000     
       487       -1.190       0.000       0.000      2.3267E+06 
       488       -1.057     -1.2198E-02   0.000       0.000     
       489      -0.7582      6.5957E-03   0.000       0.000     
       490      -0.4060      5.1685E-02   0.000       0.000     
       491      -5.0489E-02  0.1143       0.000       0.000     
       492       6.5857E-03  0.4759       0.000       0.000     
       493       4.1711E-02  0.8441       0.000       0.000     
       494       4.1734E-02   1.166       0.000       0.000     
       495        0.000       1.311     -2.7927E+07   0.000     
       496       -1.190       0.000       0.000      4.4949E+06 
       497       -1.056     -1.4906E-02   0.000       0.000     
       498      -0.7545      1.8127E-03   0.000       0.000     
       499      -0.3996      4.4906E-02   0.000       0.000     
       500      -4.1267E-02  0.1052       0.000       0.000     
       501       1.3567E-02  0.4695       0.000       0.000     
       502       4.6808E-02  0.8402       0.000       0.000     
       503       4.4721E-02   1.164       0.000       0.000     
       504        0.000       1.311     -3.0240E+07   0.000     
       505       -1.190       0.000       0.000      6.6630E+06 
       506       -1.055     -1.7638E-02   0.000       0.000     
       507      -0.7508     -2.9946E-03   0.000       0.000     
       508      -0.3932      3.8109E-02   0.000       0.000     
       509      -3.2037E-02  9.6050E-02   0.000       0.000     
       510       2.0566E-02  0.4630       0.000       0.000     
       511       5.1932E-02  0.8363       0.000       0.000     
       512       4.7736E-02   1.163       0.000       0.000     
       513        0.000       1.311     -3.2555E+07   0.000     
       514       -1.190       0.000       0.000      8.8316E+06 
       515       -1.054     -2.0393E-02   0.000       0.000     
       516      -0.7471     -7.8264E-03   0.000       0.000     
       517      -0.3868      3.1295E-02   0.000       0.000     
       518      -2.2797E-02  8.6898E-02   0.000       0.000     
       519       2.7583E-02  0.4565       0.000       0.000     
       520       5.7083E-02  0.8324       0.000       0.000     
       521       5.0778E-02   1.162       0.000       0.000     
       522        0.000       1.311     -3.4873E+07   0.000     
       523       -1.190       0.000       0.000      1.1001E+07 
       524       -1.052     -2.3173E-02   0.000       0.000     
       525      -0.7433     -1.2683E-02   0.000       0.000     
       526      -0.3804      2.4464E-02   0.000       0.000     
       527      -1.3550E-02  7.7741E-02   0.000       0.000     
       528       3.4617E-02  0.4500       0.000       0.000     
       529       6.2262E-02  0.8284       0.000       0.000     
       530       5.3848E-02   1.160       0.000       0.000     
       531        0.000       1.311     -3.7194E+07   0.000     
       532       -1.190       0.000       0.000      1.3172E+07 
       533       -1.051     -2.5978E-02   0.000       0.000     
       534      -0.7396     -1.7565E-02   0.000       0.000     
       535      -0.3740      1.7616E-02   0.000       0.000     
       536      -4.2951E-03  6.8577E-02   0.000       0.000     
       537       4.1668E-02  0.4435       0.000       0.000     
       538       6.7469E-02  0.8244       0.000       0.000     
       539       5.6948E-02   1.159       0.000       0.000     
       540        0.000       1.311     -3.9519E+07   0.000     
       541       -1.190       0.000       0.000      1.5345E+07 
       542       -1.050     -2.8808E-02   0.000       0.000     
       543      -0.7358     -2.2472E-02   0.000       0.000     
       544      -0.3676      1.0751E-02   0.000       0.000     
       545       4.9661E-03  5.9409E-02   0.000       0.000     
       546       4.8736E-02  0.4370       0.000       0.000     
       547       7.2704E-02  0.8205       0.000       0.000     
       548       6.0078E-02   1.158       0.000       0.000     
       549        0.000       1.311     -4.1848E+07   0.000     
       550       -1.190       0.000       0.000      1.7520E+07 
       551       -1.049     -3.1665E-02   0.000       0.000     
       552      -0.7320     -2.7406E-02   0.000       0.000     
       553      -0.3612      3.8697E-03   0.000       0.000     
       554       1.4233E-02  5.0237E-02   0.000       0.000     
       555       5.5820E-02  0.4305       0.000       0.000     
       556       7.7968E-02  0.8165       0.000       0.000     
       557       6.3238E-02   1.156       0.000       0.000     
       558        0.000       1.311     -4.4182E+07   0.000     
       559       -1.190       0.000       0.000      1.9697E+07 
       560       -1.048     -3.4548E-02   0.000       0.000     
       561      -0.7283     -3.2365E-02   0.000       0.000     
       562      -0.3548     -3.0282E-03   0.000       0.000     
       563       2.3506E-02  4.1060E-02   0.000       0.000     
       564       6.2920E-02  0.4240       0.000       0.000     
       565       8.3261E-02  0.8125       0.000       0.000     
       566       6.6429E-02   1.155       0.000       0.000     
       567        0.000       1.311     -4.6520E+07   0.000     
       568       -1.190       0.000       0.000      2.1878E+07 
       569       -1.046     -3.7458E-02   0.000       0.000     
       570      -0.7245     -3.7350E-02   0.000       0.000     
       571      -0.3484     -9.9421E-03   0.000       0.000     
       572       3.2783E-02  3.1880E-02   0.000       0.000     
       573       7.0035E-02  0.4175       0.000       0.000     
       574       8.8583E-02  0.8085       0.000       0.000     
       575       6.9652E-02   1.154       0.000       0.000     
       576        0.000       1.311     -4.8865E+07   0.000     
       577       -1.190       0.000       0.000      2.4063E+07 
       578       -1.045     -4.0396E-02   0.000       0.000     
       579      -0.7206     -4.2362E-02   0.000       0.000     
       580      -0.3419     -1.6872E-02   0.000       0.000     
       581       4.2064E-02  2.2697E-02   0.000       0.000     
       582       7.7165E-02  0.4110       0.000       0.000     
       583       9.3934E-02  0.8045       0.000       0.000     
       584       7.2908E-02   1.152       0.000       0.000     
       585        0.000       1.311     -5.1216E+07   0.000     
       586       -1.190       0.000       0.000      2.6252E+07 
       587       -1.044     -4.3362E-02   0.000       0.000     
       588      -0.7168     -4.7401E-02   0.000       0.000     
       589      -0.3355     -2.3816E-02   0.000       0.000     
       590       5.1349E-02  1.3512E-02   0.000       0.000     
       591       8.4309E-02  0.4045       0.000       0.000     
       592       9.9315E-02  0.8005       0.000       0.000     
       593       7.6197E-02   1.151       0.000       0.000     
       594        0.000       1.311     -5.3574E+07   0.000     
       595       -1.190       0.000       0.000      2.8445E+07 
       596       -1.042     -4.6357E-02   0.000       0.000     
       597      -0.7130     -5.2467E-02   0.000       0.000     
       598      -0.3290     -3.0776E-02   0.000       0.000     
       599       6.0637E-02  4.3246E-03   0.000       0.000     
       600       9.1466E-02  0.3980       0.000       0.000     
       601       0.1047      0.7964       0.000       0.000     
       602       7.9519E-02   1.149       0.000       0.000     
       603        0.000       1.311     -5.5939E+07   0.000     
       604       -1.190       0.000       0.000      3.0643E+07 
       605       -1.041     -4.9382E-02   0.000       0.000     
       606      -0.7091     -5.7559E-02   0.000       0.000     
       607      -0.3226     -3.7749E-02   0.000       0.000     
       608       6.9927E-02 -4.8644E-03   0.000       0.000     
       609       9.8636E-02  0.3915       0.000       0.000     
       610       0.1102      0.7924       0.000       0.000     
       611       8.2876E-02   1.148       0.000       0.000     
       612        0.000       1.311     -5.8312E+07   0.000     
       613       -1.190       0.000       0.000      3.2847E+07 
       614       -1.040     -5.2436E-02   0.000       0.000     
       615      -0.7053     -6.2679E-02   0.000       0.000     
       616      -0.3161     -4.4737E-02   0.000       0.000     
       617       7.9219E-02 -1.4055E-02   0.000       0.000     
       618       0.1058      0.3849       0.000       0.000     
       619       0.1156      0.7884       0.000       0.000     
       620       8.6268E-02   1.147       0.000       0.000     
       621        0.000       1.311     -6.0693E+07   0.000     
       622       -1.190       0.000       0.000      3.5056E+07 
       623       -1.039     -5.5522E-02   0.000       0.000     
       624      -0.7014     -6.7826E-02   0.000       0.000     
       625      -0.3096     -5.1738E-02   0.000       0.000     
       626       8.8513E-02 -2.3246E-02   0.000       0.000     
       627       0.1130      0.3784       0.000       0.000     
       628       0.1211      0.7843       0.000       0.000     
       629       8.9696E-02   1.145       0.000       0.000     
       630        0.000       1.311     -6.3084E+07   0.000     
       631       -1.190       0.000       0.000      3.7272E+07 
       632       -1.037     -5.8638E-02   0.000       0.000     
       633      -0.6975     -7.3000E-02   0.000       0.000     
       634      -0.3031     -5.8752E-02   0.000       0.000     
       635       9.7808E-02 -3.2437E-02   0.000       0.000     
       636       0.1202      0.3719       0.000       0.000     
       637       0.1267      0.7802       0.000       0.000     
       638       9.3161E-02   1.144       0.000       0.000     
       639        0.000       1.311     -6.5484E+07   0.000     
       640       -1.190       0.000       0.000      3.9495E+07 
       641       -1.036     -6.1786E-02   0.000       0.000     
       642      -0.6937     -7.8201E-02   0.000       0.000     
       643      -0.2967     -6.5778E-02   0.000       0.000     
       644       0.1071     -4.1629E-02   0.000       0.000     
       645       0.1274      0.3654       0.000       0.000     
       646       0.1322      0.7762       0.000       0.000     
       647       9.6662E-02   1.142       0.000       0.000     
       648        0.000       1.311     -6.7894E+07   0.000     
       649       -1.190       0.000       0.000      4.1725E+07 
       650       -1.035     -6.4966E-02   0.000       0.000     
       651      -0.6898     -8.3430E-02   0.000       0.000     
       652      -0.2902     -7.2815E-02   0.000       0.000     
       653       0.1164     -5.0820E-02   0.000       0.000     
       654       0.1347      0.3588       0.000       0.000     
       655       0.1378      0.7721       0.000       0.000     
       656       0.1002       1.141       0.000       0.000     
       657        0.000       1.311     -7.0315E+07   0.000     
       658       -1.190       0.000       0.000      4.3963E+07 
       659       -1.033     -6.8180E-02   0.000       0.000     
       660      -0.6859     -8.8686E-02   0.000       0.000     
       661      -0.2837     -7.9864E-02   0.000       0.000     
       662       0.1257     -6.0011E-02   0.000       0.000     
       663       0.1419      0.3523       0.000       0.000     
       664       0.1434      0.7680       0.000       0.000     
       665       0.1038       1.139       0.000       0.000     
       666        0.000       1.311     -7.2746E+07   0.000     
       667       -1.190       0.000       0.000      4.6210E+07 
       668       -1.032     -7.1427E-02   0.000       0.000     
       669      -0.6819     -9.3970E-02   0.000       0.000     
       670      -0.2772     -8.6923E-02   0.000       0.000     
       671       0.1350     -6.9202E-02   0.000       0.000     
       672       0.1491      0.3458       0.000       0.000     
       673       0.1491      0.7639       0.000       0.000     
       674       0.1074       1.138       0.000       0.000     
       675        0.000       1.311     -7.5190E+07   0.000     
       676       -1.190       0.000       0.000      4.8465E+07 
       677       -1.031     -7.4708E-02   0.000       0.000     
       678      -0.6780     -9.9281E-02   0.000       0.000     
       679      -0.2707     -9.3992E-02   0.000       0.000     
       680       0.1443     -7.8391E-02   0.000       0.000     
       681       0.1564      0.3393       0.000       0.000     
       682       0.1548      0.7598       0.000       0.000     
       683       0.1111       1.136       0.000       0.000     
       684        0.000       1.311     -7.7645E+07   0.000     
       685       -1.190       0.000       0.000      5.0729E+07 
       686       -1.029     -7.8024E-02   0.000       0.000     
       687      -0.6741     -0.1046       0.000       0.000     
       688      -0.2642     -0.1011       0.000       0.000     
       689       0.1536     -8.7579E-02   0.000       0.000     
       690       0.1636      0.3327       0.000       0.000     
       691       0.1605      0.7557       0.000       0.000     
       692       0.1148       1.135       0.000       0.000     
       693        0.000       1.311     -8.0114E+07   0.000     
       694       -1.190       0.000       0.000      5.3003E+07 
       695       -1.028     -8.1376E-02   0.000       0.000     
       696      -0.6701     -0.1100       0.000       0.000     
       697      -0.2577     -0.1082       0.000       0.000     
       698       0.1629     -9.6767E-02   0.000       0.000     
       699       0.1709      0.3262       0.000       0.000     
       700       0.1662      0.7516       0.000       0.000     
       701       0.1185       1.133       0.000       0.000     
       702        0.000       1.310     -8.2596E+07   0.000     
       703       -1.190       0.000       0.000      5.5287E+07 
       704       -1.026     -8.4763E-02   0.000       0.000     
       705      -0.6662     -0.1154       0.000       0.000     
       706      -0.2512     -0.1153       0.000       0.000     
       707       0.1722     -0.1060       0.000       0.000     
       708       0.1781      0.3197       0.000       0.000     
       709       0.1720      0.7475       0.000       0.000     
       710       0.1223       1.132       0.000       0.000     
       711        0.000       1.310     -8.5092E+07   0.000     
       712       -1.190       0.000       0.000      5.7581E+07 
       713       -1.025     -8.8188E-02   0.000       0.000     
       714      -0.6622     -0.1208       0.000       0.000     
       715      -0.2447     -0.1224       0.000       0.000     
       716       0.1814     -0.1151       0.000       0.000     
       717       0.1854      0.3132       0.000       0.000     
       718       0.1778      0.7434       0.000       0.000     
       719       0.1261       1.130       0.000       0.000     
       720        0.000       1.310     -8.7602E+07   0.000     
       721       -1.190       0.000       0.000      9.4694E+08 
       722       -1.024     -9.1650E-02   0.000       0.000     
       723      -0.6583     -0.1262       0.000       0.000     
       724      -0.2382     -0.1295       0.000       0.000     
       725       0.1907     -0.1243       0.000       0.000     
       726       0.1927      0.3067       0.000       0.000     
       727       0.1836      0.7392       0.000       0.000     
       728       0.1300       1.129       0.000       0.000     
       729        0.000       1.310     -1.0645E+09   0.000     

 MAXIMUM         0.1927       1.311      5.5856E+08  9.4694E+08
 AT NODE               726         567           9         721

 MINIMUM         -1.190     -0.1295     -1.0645E+09 -5.4350E+08
 AT NODE               613         724         729           1


          THE ANALYSIS HAS BEEN COMPLETED



                              ANALYSIS COMPLETE



     JOB TIME SUMMARY
       USER TIME (SEC)      =  0.50000    
       SYSTEM TIME (SEC)    =  0.10000    
       TOTAL CPU TIME (SEC) =  0.60000    
       WALLCLOCK TIME (SEC) =          1
