1

  ABAQUS VERSION 6.4-1                                     DATE 07-Apr-2008   TIME 17:24:48        PAGE     1
 





    AAAAAA     BBBBBBBBB      AAAAAA      QQQQQQQQ    U        U    SSSSSSSS
   A      A    B        B    A      A    Q        Q   U        U   S
  A        A   B        B   A        A   Q        Q   U        U   S
  A        A   B        B   A        A   Q        Q   U        U   S
  AAAAAAAAAA   BBBBBBBBB    AAAAAAAAAA   Q        Q   U        U    SSSSSSSS
  A        A   B        B   A        A   Q    Q   Q   U        U            S
  A        A   B        B   A        A   Q     Q  Q   U        U            S
  A        A   B        B   A        A   Q      Q Q   U        U            S
  A        A   BBBBBBBBB    A        A    QQQQQQQQ     UUUUUUUU     SSSSSSSS
 



                      This program has been developed by
 
                                  ABAQUS, Inc.
                                1080 Main Street
                             Pawtucket, R.I. 02860
 


                   Available for internal use at University of Virginia. 
                   Support of your usage is not included in the license
                   price.  To purchase support, or send information to ABAQUS, Inc.
                   about a suspected error, please follow the procedures
                   described in the ABAQUS academic support instructions
                   document. A copy of this document has been sent to the
                   designated user at your site. Additional copies can be
                   obtained by contacting ABAQUS, Inc. or your local ABAQUS
                   representative.

                   Should you have any questions concerning the terms of
                   this academic license, please contact the designated
                   user at your university, Brad Sayler
 
                        On machine d107-14 
                        you are authorized to run
                        ABAQUS/Standard until 31-Dec-2008

                        Your site id is: 08UVA_X 


 
                    For assistance or any other information contact

                           ABAQUS, INC.
                           1080 Main Street
                           Pawtucket, RI 02860-4847
                           U.S.A.
                           Tel: (1) 401 727 4200
                           Fax: (1) 401 727 4208
                           E-mail: info@abaqus.com
                           Web: http://www.abaqus.com
                           Technical support: support@abaqus.com 


                * * * * * * * * * * * * * * * * * * * * * * * * * * * * * * 
                *                                                         * 
                *                   *****************                     * 
                *                   *  N O T I C E  *                     * 
                *                   *****************                     * 
                *                                                         * 
                *                                                         * 
                *                 ABAQUS VERSION 6.4-1                    * 
                *                                                         * 
                *          BUILD ID: 2003_09_29-11.18.28 46457            * 
                *                                                         * 
                *                                                         * 
                *  Please make sure you are using version 6.4 manuals     * 
                *  plus the notes accompanying this release.              * 
                *                                                         * 
                *                                                         * 
                *   This program may not be used for commercial purposes  * 
                *           without payment of a monthly charge.          * 
                *                                                         * 
                * * * * * * * * * * * * * * * * * * * * * * * * * * * * * * 


 



     PROCESSING PART, INSTANCE, AND ASSEMBLY INFORMATION
   *******************************************************


     END PROCESSING PART, INSTANCE, AND ASSEMBLY INFORMATION
   ***********************************************************




     OPTIONS BEING PROCESSED
   ***************************


  *Heading
          2-D plate with hole: 4-noded elements                                                                                                                                                                                                                           
  *NODE
  *NODE,NSET=N1
  *NODE,NSET=N2
  *NODE,NSET=N3
  *NODE,NSET=N4
  *NODE,NSET=N5
  *NGEN,NSET=ARC1,LINE=C
  *NGEN,NSET=ROW1
  *NGEN,NSET=ROW1
  *NFILL,NSET=ALL, BIAS= 1.000
  *ELEMENT, ELSET=ALL, TYPE=CPS4
  *ELGEN, ELSET=ALL
  *ELSET,ELSET=TOP,GENERATE
  *NSET, NSET=YAXIS,GENERATE
  *NSET, NSET=XAXIS,GENERATE
  *MATERIAL,NAME=ALUM
  *ELASTIC
  *SOLID SECTION, ELSET=ALL, MAT=ALUM
  *BOUNDARY
  *SOLID SECTION, ELSET=ALL, MAT=ALUM
  *STEP
  *STEP
  *STEP
  *STATIC
  *BOUNDARY
  *DLOAD
  *EL PRINT
  *END STEP
  *STEP
  *STATIC
  *BOUNDARY
  *NODE PRINT
  *END STEP

 ***WARNING: ELEMENT 409 HAS AN ASPECT RATIO EXCEEDING 100 TO 1.

 ***WARNING: ELEMENT 416 HAS AN ASPECT RATIO EXCEEDING 100 TO 1.

 ***WARNING: ELEMENT 417 HAS AN ASPECT RATIO EXCEEDING 100 TO 1.

 ***WARNING: ELEMENT 424 HAS AN ASPECT RATIO EXCEEDING 100 TO 1.

 ***WARNING: ELEMENT 425 HAS AN ASPECT RATIO EXCEEDING 100 TO 1.

 ***WARNING: ELEMENT 432 HAS AN ASPECT RATIO EXCEEDING 100 TO 1.

 ***WARNING: ELEMENT 433 HAS AN ASPECT RATIO EXCEEDING 100 TO 1.

 ***WARNING: ELEMENT 440 HAS AN ASPECT RATIO EXCEEDING 100 TO 1.

 ***WARNING: ELEMENT 441 HAS AN ASPECT RATIO EXCEEDING 100 TO 1.

 ***WARNING: ELEMENT 448 HAS AN ASPECT RATIO EXCEEDING 100 TO 1.

 ***WARNING: ELEMENT 449 HAS AN ASPECT RATIO EXCEEDING 100 TO 1.

 ***WARNING: ELEMENT 456 HAS AN ASPECT RATIO EXCEEDING 100 TO 1.

 ***WARNING: ELEMENT 457 HAS AN ASPECT RATIO EXCEEDING 100 TO 1.

 ***WARNING: ELEMENT 464 HAS AN ASPECT RATIO EXCEEDING 100 TO 1.

 ***WARNING: ELEMENT 465 HAS AN ASPECT RATIO EXCEEDING 100 TO 1.

 ***WARNING: ELEMENT 472 HAS AN ASPECT RATIO EXCEEDING 100 TO 1.

 ***WARNING: ELEMENT 473 HAS AN ASPECT RATIO EXCEEDING 100 TO 1.

 ***WARNING: ELEMENT 480 HAS AN ASPECT RATIO EXCEEDING 100 TO 1.

 ***WARNING: ELEMENT 481 HAS AN ASPECT RATIO EXCEEDING 100 TO 1.

 ***WARNING: ELEMENT 488 HAS AN ASPECT RATIO EXCEEDING 100 TO 1.

 ***WARNING: ELEMENT 489 HAS AN ASPECT RATIO EXCEEDING 100 TO 1.

 ***WARNING: ELEMENT 496 HAS AN ASPECT RATIO EXCEEDING 100 TO 1.

 ***WARNING: ELEMENT 497 HAS AN ASPECT RATIO EXCEEDING 100 TO 1.

 ***WARNING: ELEMENT 504 HAS AN ASPECT RATIO EXCEEDING 100 TO 1.

 ***WARNING: ELEMENT 505 HAS AN ASPECT RATIO EXCEEDING 100 TO 1.

 ***WARNING: ELEMENT 512 HAS AN ASPECT RATIO EXCEEDING 100 TO 1.

 ***WARNING: ELEMENT 513 HAS AN ASPECT RATIO EXCEEDING 100 TO 1.

 ***WARNING: ELEMENT 520 HAS AN ASPECT RATIO EXCEEDING 100 TO 1.

 ***WARNING: ELEMENT 521 HAS AN ASPECT RATIO EXCEEDING 100 TO 1.

 ***WARNING: ELEMENT 528 HAS AN ASPECT RATIO EXCEEDING 100 TO 1.

 ***WARNING: ELEMENT 529 HAS AN ASPECT RATIO EXCEEDING 100 TO 1.

 ***WARNING: ELEMENT 536 HAS AN ASPECT RATIO EXCEEDING 100 TO 1.

 ***WARNING: ELEMENT 537 HAS AN ASPECT RATIO EXCEEDING 100 TO 1.

 ***WARNING: ELEMENT 544 HAS AN ASPECT RATIO EXCEEDING 100 TO 1.

 ***WARNING: ELEMENT 545 HAS AN ASPECT RATIO EXCEEDING 100 TO 1.

 ***WARNING: ELEMENT 552 HAS AN ASPECT RATIO EXCEEDING 100 TO 1.

 ***WARNING: ELEMENT 553 HAS AN ASPECT RATIO EXCEEDING 100 TO 1.

 ***WARNING: ELEMENT 560 HAS AN ASPECT RATIO EXCEEDING 100 TO 1.

 ***WARNING: ELEMENT 561 HAS AN ASPECT RATIO EXCEEDING 100 TO 1.

 ***WARNING: ELEMENT 568 HAS AN ASPECT RATIO EXCEEDING 100 TO 1.

 ***WARNING: ELEMENT 569 HAS AN ASPECT RATIO EXCEEDING 100 TO 1.

 ***WARNING: ELEMENT 576 HAS AN ASPECT RATIO EXCEEDING 100 TO 1.

 ***WARNING: ELEMENT 577 HAS AN ASPECT RATIO EXCEEDING 100 TO 1.

 ***WARNING: ELEMENT 584 HAS AN ASPECT RATIO EXCEEDING 100 TO 1.

 ***WARNING: ELEMENT 585 HAS AN ASPECT RATIO EXCEEDING 100 TO 1.

 ***WARNING: ELEMENT 592 HAS AN ASPECT RATIO EXCEEDING 100 TO 1.

 ***WARNING: ELEMENT 593 HAS AN ASPECT RATIO EXCEEDING 100 TO 1.

 ***WARNING: ELEMENT 600 HAS AN ASPECT RATIO EXCEEDING 100 TO 1.

 ***WARNING: ELEMENT 601 HAS AN ASPECT RATIO EXCEEDING 100 TO 1.

 ***WARNING: ELEMENT 608 HAS AN ASPECT RATIO EXCEEDING 100 TO 1.

 ***WARNING: ELEMENT 609 HAS AN ASPECT RATIO EXCEEDING 100 TO 1.

 ***WARNING: ELEMENT 616 HAS AN ASPECT RATIO EXCEEDING 100 TO 1.

 ***WARNING: ELEMENT 617 HAS AN ASPECT RATIO EXCEEDING 100 TO 1.

 ***WARNING: ELEMENT 624 HAS AN ASPECT RATIO EXCEEDING 100 TO 1.

 ***WARNING: ELEMENT 625 HAS AN ASPECT RATIO EXCEEDING 100 TO 1.

 ***WARNING: ELEMENT 632 HAS AN ASPECT RATIO EXCEEDING 100 TO 1.

 ***WARNING: ELEMENT 633 HAS AN ASPECT RATIO EXCEEDING 100 TO 1.

 ***WARNING: ELEMENT 640 HAS AN ASPECT RATIO EXCEEDING 100 TO 1.

 ***WARNING: ELEMENT 641 HAS AN ASPECT RATIO EXCEEDING 100 TO 1.

 ***WARNING: ELEMENT 648 HAS AN ASPECT RATIO EXCEEDING 100 TO 1.

 ***WARNING: ELEMENT 649 HAS AN ASPECT RATIO EXCEEDING 100 TO 1.

 ***WARNING: ELEMENT 656 HAS AN ASPECT RATIO EXCEEDING 100 TO 1.

 ***WARNING: ELEMENT 657 HAS AN ASPECT RATIO EXCEEDING 100 TO 1.

 ***WARNING: ELEMENT 664 HAS AN ASPECT RATIO EXCEEDING 100 TO 1.

 ***WARNING: ELEMENT 665 HAS AN ASPECT RATIO EXCEEDING 100 TO 1.

 ***WARNING: ELEMENT 672 HAS AN ASPECT RATIO EXCEEDING 100 TO 1.

 ***WARNING: ELEMENT 673 HAS AN ASPECT RATIO EXCEEDING 100 TO 1.

 ***WARNING: ELEMENT 680 HAS AN ASPECT RATIO EXCEEDING 100 TO 1.

 ***WARNING: ELEMENT 681 HAS AN ASPECT RATIO EXCEEDING 100 TO 1.

 ***WARNING: ELEMENT 688 HAS AN ASPECT RATIO EXCEEDING 100 TO 1.

 ***WARNING: ELEMENT 689 HAS AN ASPECT RATIO EXCEEDING 100 TO 1.

 ***WARNING: ELEMENT 696 HAS AN ASPECT RATIO EXCEEDING 100 TO 1.

 ***WARNING: ELEMENT 697 HAS AN ASPECT RATIO EXCEEDING 100 TO 1.

 ***WARNING: ELEMENT 704 HAS AN ASPECT RATIO EXCEEDING 100 TO 1.

 ***WARNING: ELEMENT 705 HAS AN ASPECT RATIO EXCEEDING 100 TO 1.

 ***WARNING: ELEMENT 712 HAS AN ASPECT RATIO EXCEEDING 100 TO 1.

 ***WARNING: ELEMENT 713 HAS AN ASPECT RATIO EXCEEDING 100 TO 1.

 ***WARNING: ELEMENT 720 HAS AN ASPECT RATIO EXCEEDING 100 TO 1.

 ***WARNING: ELEMENT 721 HAS AN ASPECT RATIO EXCEEDING 100 TO 1.

 ***WARNING: ELEMENT 728 HAS AN ASPECT RATIO EXCEEDING 100 TO 1.

 ***WARNING: ELEMENT 729 HAS AN ASPECT RATIO EXCEEDING 100 TO 1.

 ***WARNING: ELEMENT 736 HAS AN ASPECT RATIO EXCEEDING 100 TO 1.

 ***WARNING: ELEMENT 737 HAS AN ASPECT RATIO EXCEEDING 100 TO 1.

 ***WARNING: ELEMENT 744 HAS AN ASPECT RATIO EXCEEDING 100 TO 1.

 ***WARNING: ELEMENT 745 HAS AN ASPECT RATIO EXCEEDING 100 TO 1.

 ***WARNING: ELEMENT 752 HAS AN ASPECT RATIO EXCEEDING 100 TO 1.

 ***WARNING: ELEMENT 753 HAS AN ASPECT RATIO EXCEEDING 100 TO 1.

 ***WARNING: ELEMENT 760 HAS AN ASPECT RATIO EXCEEDING 100 TO 1.

 ***WARNING: ELEMENT 761 HAS AN ASPECT RATIO EXCEEDING 100 TO 1.

 ***WARNING: ELEMENT 768 HAS AN ASPECT RATIO EXCEEDING 100 TO 1.

 ***WARNING: ELEMENT 769 HAS AN ASPECT RATIO EXCEEDING 100 TO 1.

 ***WARNING: ELEMENT 776 HAS AN ASPECT RATIO EXCEEDING 100 TO 1.

 ***WARNING: ELEMENT 777 HAS AN ASPECT RATIO EXCEEDING 100 TO 1.

 ***WARNING: ELEMENT 784 HAS AN ASPECT RATIO EXCEEDING 100 TO 1.

 ***WARNING: ELEMENT 785 HAS AN ASPECT RATIO EXCEEDING 100 TO 1.

 ***WARNING: ELEMENT 792 HAS AN ASPECT RATIO EXCEEDING 100 TO 1.

 ***WARNING: ELEMENT 793 HAS AN ASPECT RATIO EXCEEDING 100 TO 1.

 ***WARNING: ELEMENT 800 HAS AN ASPECT RATIO EXCEEDING 100 TO 1.

 ***WARNING: The aspect ratio for 98 elements exceeds 100 to 1. The elements 
             have been identified in element set WarnElemAspectRatio.
1

   ABAQUS VERSION 6.4-1                                 DATE 07-Apr-2008       TIME 17:24:50        PAGE    2
   For use at None under academic license from ABAQUS, Inc.                                                                        

     2-D plate with hole: 4-noded elements                                           



                            P R O B L E M   S I Z E


          NUMBER OF ELEMENTS IS                                   800
          NUMBER OF NODES IS                                      909
          NUMBER OF NODES DEFINED BY THE USER                     909
          TOTAL NUMBER OF VARIABLES IN THE MODEL                 1818
          (DEGREES OF FREEDOM PLUS ANY LAGRANGE MULTIPLIER VARIABLES)



                              END OF USER INPUT PROCESSING



     JOB TIME SUMMARY
       USER TIME (SEC)      =  0.30000    
       SYSTEM TIME (SEC)    =  0.10000    
       TOTAL CPU TIME (SEC) =  0.40000    
       WALLCLOCK TIME (SEC) =          2
1

   ABAQUS VERSION 6.4-1                                     DATE 07-Apr-2008   TIME 17:24:51        PAGE    1
   For use at None under academic license from ABAQUS, Inc.                                                                        

     2-D plate with hole: 4-noded elements                                                     STEP    1  INCREMENT    1
                                                                                          TIME COMPLETED IN THIS STEP   0.00    


                        S T E P       1     S T A T I C   A N A L Y S I S


                                                                                          

     AUTOMATIC TIME CONTROL WITH -
          A SUGGESTED INITIAL TIME INCREMENT OF                 1.00    
          AND A TOTAL TIME PERIOD OF                            1.00    
          THE MINIMUM TIME INCREMENT ALLOWED IS                1.000E-06
          THE MAXIMUM TIME INCREMENT ALLOWED IS                 1.00    

     LINEAR EQUATION SOLVER TYPE         DIRECT SPARSE
  
  
  
                   M E M O R Y   A N D   D I S K   E S T I M A T E
  
  
           SUMMARY FOR CURRENT NODE ORDERING
          (NOTE THAT IF NODE ORDERING CHANGES THE SIZE ESTIMATES FOR THE STEPS WILL CHANGE)
  
  
           STEP   MAXIMUM DOF     FLOATING PT    MINIMUM MEMORY      MEMORY TO      REQUIRED DISKSPACE
                  WAVEFRONT       OPERATIONS       REQUIRED        MINIMIZE I/O
                                PER ITERATION     (MBYTES)           (MBYTES)          (KBYTES)
  
             1          68        1.77E+006         14.92              14.92            724.12
          ----    ---------      ------------    -------------     -------------      -------------
           MAX          68        1.77E+006         14.92              14.92            724.12
  
  
          THE TABLE ABOVE PROVIDES A STEP BY STEP SUMMARY OF SOME BASIC SIZING INFORMATION
          FOR THE PROBLEM. SOME FURTHER DESCRIPTION OF THE PARAMETERS GIVEN FOLLOWS:
  
          (1) MAXIMUM DOF WAVEFRONT - SIZE OF THE BIGGEST FRONT IN THE EQUATION SOLVER.
              PROVIDES A BASIC SIZING OF THE MOST MEMORY INTENSIVE SEGMENT OF SOLVER.
          (2) FLOATING POINT OPERATIONS PER ITERATION - MEASURE OF THE NUMBER OF FLOATING
              POINT OPERATIONS REQUIRED FOR A SINGLE SOLVER PASS. ON A GIVEN PLATFORM
              THE TIME REQUIRED FOR A SOLVER PASS WILL BE ROUGHLY A LINEAR FUNCTION
              OF THIS VALUE.
              NOTE - EXCEPT FOR THE FIRST STEP, THE VALUE IN THIS TABLE DOES NOT INCLUDE
                     ADDITIONAL FLOATING POINT OPERATIONS THAT ARE REQUIRED IN MULTIPLE LOAD
                     CASE STEPS WHEN CONSTRAINTS CHANGE FROM LOAD CASE TO LOAD CASE.  THIS
                     SITUATION CAUSES A REORDERING TO BE PERFORMED, AT WHICH TIME AN UPPER
                     BOUND ON THE NUMBER OF ADDITIONAL FLOATING POINT OPERATIONS WILL BE
                     CALCULATED AND INCLUDED UNDER THE ESTIMATE SUMMARIES FOR THE RELEVANT
                     STEPS (SEE NOTE BELOW ON REORDERING).
          (3) MINIMUM MEMORY REQUIRED - MINIMUM POSSIBLE MEMORY VALUE FOR standard_memory
              THAT ENABLES ABAQUS TO SOLVE THE PROBLEM. USE OF MEMORY WILL BE MINIMIZED BY
              WRITING AS MUCH INFORMATION AS POSSIBLE TO DISK WHICH WILL INCREASE I/O TIME.
          (4) MEMORY TO MINIMIZE I/O - VALUE OF standard_memory THAT ALLOWS ABAQUS TO KEEP
              ALL SIGNIFICANT SCRATCH FILES IN MEMORY. THIS WILL MINIMIZE I/O TIME FOR THE USER
              WITH ACCESS TO A LARGE AMOUNT OF MEMORY.
          (5) REQUIRED DISKSPACE - AMOUNT OF DISK REQUIRED FOR SCRATCH FILES. THESE WILL BE
              DELETED AT THE END OF THE ANALYSIS.
  
  
           NOTE - WHENEVER POSSIBLE THE USER SHOULD SET standard_memory TO BE LESS THAN THE
          PHYSICAL MEMORY ON THE MACHINE. UNLESS NECESSARY USERS SHOULD NOT MAKE USE
          OF VIRTUAL MEMORY EVEN IN AN ATTEMPT TO KEEP SCRATCH FILES IN MEMORY.
  
           NOTE - IF A REORDERING IS PERFORMED (THIS WILL GENERALLY BE DONE ONLY FOR 3D-3D
          LARGE SLIDING PROBLEMS), THE SIZE ESTIMATES DONE AT THIS TIME WILL NO LONGER BE VALID.
          THE ESTIMATES WILL BE REDONE IN THE EVENT OF A REORDERING AND A NEW SUMMARY WILL BE
          BE PRINTED FOR THE REMAINING STEPS.
  
  
  
           S I Z E   E S T I M A T E S   F O R   C U R R E N T   S T E P
  
          NUMBER OF EQUATIONS                        1818
          MAX DOF WAVEFRONT                          68
          FLOATING POINT OPS PER SOLVER ITERATION   1.77E+006
          MEMORY USED FOR STEP                      15.05 MBYTES
  
  
           ESTIMATED FILE SIZES
  
           FILE           KWORDS           KBYTES
  
          .fct            51.087          399.117
          .nck             6.400           50.000
          .opr            35.200          275.000
          -------        -------          -------
           TOTAL          92.687          724.117
  


                                INCREMENT     1 SUMMARY


 TIME INCREMENT COMPLETED   1.00    ,  FRACTION OF STEP COMPLETED   1.00    
 STEP TIME COMPLETED        1.00    ,  TOTAL TIME COMPLETED         1.00    



                                                  E L E M E N T   O U T P U T





   THE FOLLOWING TABLE IS PRINTED FOR ALL ELEMENTS WITH TYPE CPS4 AT THE INTEGRATION POINTS

    ELEMENT  PT FOOT-       S11         S22         S12         E11         E22         E12     
                NOTE 

          1   1        -8.3440E+07  2.4048E+09  2.4565E+08 -1.1498E-02  3.4712E-02  9.1241E-03  
          1   2        -9.3962E+07  2.3716E+09  2.4905E+08 -1.1506E-02  3.4283E-02  9.2505E-03  
          1   3         3.1584E+08  2.3122E+09 -5.7049E+08 -5.3973E-03  3.1677E-02 -2.1190E-02  
          1   4         3.0473E+08  2.2814E+09 -5.6474E+08 -5.4243E-03  3.1286E-02 -2.0976E-02  
          2   1        -2.2281E+08  1.7462E+09 -2.5397E+08 -1.0667E-02  2.5900E-02 -9.4333E-03  
          2   2        -2.3693E+08  1.7205E+09 -2.4493E+08 -1.0758E-02  2.5593E-02 -9.0975E-03  
          2   3         4.4331E+08  1.5739E+09 -6.4400E+08 -4.1225E-04  2.0584E-02 -2.3920E-02  
          2   4         4.2977E+08  1.5523E+09 -6.3541E+08 -5.1291E-04  2.0333E-02 -2.3601E-02  
          3   1        -6.2202E+05  9.7157E+08 -3.8624E+08 -4.1728E-03  1.3882E-02 -1.4346E-02  
          3   2        -1.4046E+07  9.5526E+08 -3.7836E+08 -4.2946E-03  1.3707E-02 -1.4053E-02  
          3   3         4.0893E+08  8.2003E+08 -4.9127E+08  2.3274E-03  9.9621E-03 -1.8247E-02  
          3   4         3.9717E+08  8.0659E+08 -4.8454E+08  2.2170E-03  9.8205E-03 -1.7997E-02  
          4   1         8.9051E+07  3.6027E+08 -2.5765E+08 -2.7184E-04  4.7650E-03 -9.5699E-03  
          4   2         8.1088E+07  3.5422E+08 -2.5381E+08 -3.5969E-04  4.7128E-03 -9.4271E-03  
          4   3         2.6857E+08  3.2815E+08 -2.3867E+08  2.4303E-03  3.5368E-03 -8.8651E-03  
          4   4         2.6172E+08  3.2308E+08 -2.3545E+08  2.3542E-03  3.4938E-03 -8.7454E-03  
          5   1        -4.4090E+07 -2.7502E+07 -2.0808E+07 -5.1199E-04 -2.0394E-04 -7.7286E-04  
          5   2        -4.2632E+07 -2.3827E+07 -2.2207E+07 -5.0691E-04 -1.5767E-04 -8.2483E-04  
          5   3        -1.7348E+07  9.5459E+07  1.0539E+07 -6.5693E-04  1.4380E-03  3.9143E-04  
          5   4        -1.5641E+07  9.9708E+07  8.8463E+06 -6.5076E-04  1.4914E-03  3.2858E-04  
          6   1        -4.5544E+08 -2.7464E+08  2.6771E+08 -5.3293E-03 -1.9716E-03  9.9436E-03  
          6   2        -4.4438E+08 -2.6433E+08  2.6196E+08 -5.2155E-03 -1.8716E-03  9.7299E-03  
          6   3        -5.6186E+08  1.0537E+08  1.9286E+08 -8.4782E-03  3.9133E-03  7.1633E-03  
          6   4        -5.4847E+08  1.1711E+08  1.8610E+08 -8.3372E-03  4.0236E-03  6.9121E-03  
          7   1        -1.1739E+09 -4.0861E+08  5.0354E+08 -1.5018E-02 -8.0645E-04  1.8703E-02  
          7   2        -1.1529E+09 -3.9508E+08  4.9502E+08 -1.4777E-02 -7.0300E-04  1.8386E-02  
          7   3        -1.3238E+09  2.8407E+08  1.3410E+08 -2.0129E-02  9.7316E-03  4.9809E-03  
          7   4        -1.2990E+09  2.9811E+08  1.2509E+08 -1.9834E-02  9.8256E-03  4.6463E-03  
          8   1        -1.9176E+09 -3.3414E+08  5.3340E+08 -2.5962E-02  3.4447E-03  1.9812E-02  
          8   2        -1.8860E+09 -3.2264E+08  5.2739E+08 -2.5559E-02  3.4735E-03  1.9589E-02  
          8   3        -2.0071E+09  9.5716E+07 -3.0539E+08 -2.9083E-02  9.9692E-03 -1.1343E-02  
          8   4        -1.9730E+09  1.0656E+08 -3.0898E+08 -2.8642E-02  9.9780E-03 -1.1477E-02  
          9   1        -7.8528E+07  2.3546E+09  2.5272E+08 -1.1213E-02  3.3973E-02  9.3867E-03  
          9   2        -8.8918E+07  2.3218E+09  2.5609E+08 -1.1221E-02  3.3550E-02  9.5118E-03  
          9   3         3.2088E+08  2.2667E+09 -5.5831E+08 -5.1305E-03  3.1006E-02 -2.0737E-02  
          9   4         3.0991E+08  2.2364E+09 -5.5261E+08 -5.1572E-03  3.0620E-02 -2.0526E-02  
         10   1        -2.2590E+08  1.7105E+09 -2.3326E+08 -1.0558E-02  2.5403E-02 -8.6641E-03  
         10   2        -2.3981E+08  1.6851E+09 -2.2436E+08 -1.0648E-02  2.5101E-02 -8.3332E-03  
         10   3         4.3749E+08  1.5464E+09 -6.2160E+08 -3.7742E-04  2.0216E-02 -2.3088E-02  
         10   4         4.2413E+08  1.5250E+09 -6.1313E+08 -4.7676E-04  1.9968E-02 -2.2773E-02  
         11   1        -1.1949E+07  9.5686E+08 -3.6384E+08 -4.2715E-03  1.3721E-02 -1.3514E-02  
         11   2        -2.5072E+07  9.4087E+08 -3.5612E+08 -4.3905E-03  1.3548E-02 -1.3227E-02  
         11   3         3.9241E+08  8.1159E+08 -4.6981E+08  2.1276E-03  9.9124E-03 -1.7450E-02  
         11   4         3.8090E+08  7.9841E+08 -4.6322E+08  2.0197E-03  9.7734E-03 -1.7205E-02  
         12   1         7.2643E+07  3.6928E+08 -2.4406E+08 -5.4487E-04  4.9641E-03 -9.0650E-03  
         12   2         6.5189E+07  3.6349E+08 -2.4043E+08 -6.2654E-04  4.9133E-03 -8.9302E-03  
         12   3         2.4073E+08  3.3703E+08 -2.2906E+08  1.9946E-03  3.7830E-03 -8.5078E-03  
         12   4         2.3432E+08  3.3218E+08 -2.2601E+08  1.9238E-03  3.7412E-03 -8.3948E-03  
         13   1        -5.5407E+07 -3.0798E+05 -2.5024E+07 -7.9021E-04  2.3306E-04 -9.2946E-04  
         13   2        -5.4082E+07  2.9773E+06 -2.6280E+07 -7.8536E-04  2.7431E-04 -9.7612E-04  
         13   3        -3.1826E+07  1.1032E+08  2.2396E+06 -9.2745E-04  1.7124E-03  8.3185E-05  
         13   4        -3.0274E+07  1.1411E+08  7.2128E+05 -9.2155E-04  1.7599E-03  2.6790E-05  
         14   1        -4.4991E+08 -2.5534E+08  2.4867E+08 -5.3330E-03 -1.7195E-03  9.2364E-03  
         14   2        -4.3909E+08 -2.4529E+08  2.4306E+08 -5.2214E-03 -1.6223E-03  9.0278E-03  
         14   3        -5.5203E+08  1.1751E+08  1.7244E+08 -8.3898E-03  4.0445E-03  6.4049E-03  
         14   4        -5.3893E+08  1.2894E+08  1.6585E+08 -8.2516E-03  4.1517E-03  6.1600E-03  
         15   1        -1.1473E+09 -3.9969E+08  4.8067E+08 -1.4677E-02 -7.9279E-04  1.7854E-02  
         15   2        -1.1266E+09 -3.8636E+08  4.7228E+08 -1.4439E-02 -6.9090E-04  1.7542E-02  
         15   3        -1.2896E+09  2.8854E+08  1.1296E+08 -1.9660E-02  9.6490E-03  4.1956E-03  
         15   4        -1.2652E+09  3.0235E+08  1.0409E+08 -1.9370E-02  9.7415E-03  3.8663E-03  
         16   1        -1.8704E+09 -3.3765E+08  5.2034E+08 -2.5274E-02  3.1926E-03  1.9327E-02  
         16   2        -1.8392E+09 -3.2628E+08  5.1440E+08 -2.4876E-02  3.2212E-03  1.9106E-02  
         16   3        -1.9551E+09  9.1891E+07 -3.1291E+08 -2.8324E-02  9.6917E-03 -1.1622E-02  
         16   4        -1.9214E+09  1.0260E+08 -3.1646E+08 -2.7889E-02  9.7004E-03 -1.1754E-02  
         17   1        -7.3862E+07  2.3049E+09  2.5965E+08 -1.0933E-02  3.3244E-02  9.6441E-03  
         17   2        -8.4123E+07  2.2726E+09  2.6298E+08 -1.0941E-02  3.2826E-02  9.7679E-03  
         17   3         3.2568E+08  2.2217E+09 -5.4643E+08 -4.8691E-03  3.0343E-02 -2.0296E-02  
         17   4         3.1483E+08  2.1917E+09 -5.4079E+08 -4.8956E-03  2.9961E-02 -2.0087E-02  
         18   1        -2.2897E+08  1.6751E+09 -2.1309E+08 -1.0450E-02  2.4911E-02 -7.9146E-03  
         18   2        -2.4268E+08  1.6501E+09 -2.0431E+08 -1.0539E-02  2.4613E-02 -7.5885E-03  
         18   3         4.3185E+08  1.5189E+09 -5.9977E+08 -3.4045E-04  1.9848E-02 -2.2277E-02  
         18   4         4.1867E+08  1.4979E+09 -5.9141E+08 -4.3851E-04  1.9604E-02 -2.1966E-02  
         19   1        -2.2872E+07  9.4206E+08 -3.4206E+08 -4.3641E-03  1.3556E-02 -1.2705E-02  
         19   2        -3.5698E+07  9.2639E+08 -3.3451E+08 -4.4802E-03  1.3387E-02 -1.2425E-02  
         19   3         3.7619E+08  8.0285E+08 -4.4893E+08  1.9333E-03  9.8570E-03 -1.6674E-02  
         19   4         3.6493E+08  7.8992E+08 -4.4247E+08  1.8279E-03  9.7206E-03 -1.6435E-02  
         20   1         5.7206E+07  3.7760E+08 -2.3100E+08 -8.0105E-04  5.1491E-03 -8.5802E-03  
         20   2         5.0221E+07  3.7204E+08 -2.2757E+08 -8.7701E-04  5.0996E-03 -8.4527E-03  
         20   3         2.1450E+08  3.4495E+08 -2.1977E+08  1.5859E-03  4.0086E-03 -8.1631E-03  
         20   4         2.0849E+08  3.4029E+08 -2.1689E+08  1.5200E-03  3.9678E-03 -8.0560E-03  
         21   1        -6.5744E+07  2.5243E+07 -2.9032E+07 -1.0474E-03  6.4237E-04 -1.0783E-03  
         21   2        -6.4530E+07  2.8171E+07 -3.0160E+07 -1.0426E-03  6.7899E-04 -1.1202E-03  
         21   3        -4.5458E+07  1.2419E+08 -5.6355E+06 -1.1817E-03  1.9690E-03 -2.0932E-04  
         21   4        -4.4035E+07  1.2758E+08 -6.9977E+06 -1.1758E-03  2.0112E-03 -2.5991E-04  
         22   1        -4.4402E+08 -2.3646E+08  2.3019E+08 -5.3297E-03 -1.4751E-03  8.5498E-03  
         22   2        -4.3342E+08 -2.2667E+08  2.2471E+08 -5.2202E-03 -1.3807E-03  8.3462E-03  
         22   3        -5.4200E+08  1.2917E+08  1.5267E+08 -8.2964E-03  4.1682E-03  5.6704E-03  
         22   4        -5.2918E+08  1.4030E+08  1.4624E+08 -8.1610E-03  4.2722E-03  5.4317E-03  
         23   1        -1.1209E+09 -3.9102E+08  4.5843E+08 -1.4336E-02 -7.8234E-04  1.7027E-02  
         23   2        -1.1005E+09 -3.7789E+08  4.5016E+08 -1.4102E-02 -6.8195E-04  1.6720E-02  
         23   3        -1.2558E+09  2.9296E+08  9.2402E+07 -1.9195E-02  9.5671E-03  3.4321E-03  
         23   4        -1.2317E+09  3.0656E+08  8.3676E+07 -1.8909E-02  9.6581E-03  3.1080E-03  
         24   1        -1.8238E+09 -3.4091E+08  5.0763E+08 -2.4593E-02  2.9461E-03  1.8855E-02  
         24   2        -1.7929E+09 -3.2967E+08  5.0175E+08 -2.4200E-02  2.9744E-03  1.8637E-02  
         24   3        -1.9037E+09  8.8323E+07 -3.2026E+08 -2.7574E-02  9.4205E-03 -1.1896E-02  
         24   4        -1.8705E+09  9.8894E+07 -3.2378E+08 -2.7145E-02  9.4291E-03 -1.2026E-02  
         25   1        -6.9436E+07  2.2558E+09  2.6644E+08 -1.0660E-02  3.2523E-02  9.8965E-03  
         25   2        -7.9571E+07  2.2239E+09  2.6974E+08 -1.0668E-02  3.2111E-02  1.0019E-02  
         25   3         3.3025E+08  2.1772E+09 -5.3485E+08 -4.6128E-03  2.9687E-02 -1.9866E-02  
         25   4         3.1952E+08  2.1475E+09 -5.2927E+08 -4.6391E-03  2.9310E-02 -1.9659E-02  
         26   1        -2.3203E+08  1.6400E+09 -1.9342E+08 -1.0343E-02  2.4423E-02 -7.1843E-03  
         26   2        -2.4554E+08  1.6154E+09 -1.8477E+08 -1.0431E-02  2.4130E-02 -6.8628E-03  
         26   3         4.2639E+08  1.4917E+09 -5.7849E+08 -3.0167E-04  1.9482E-02 -2.1487E-02  
         26   4         4.1337E+08  1.4709E+09 -5.7023E+08 -3.9851E-04  1.9241E-02 -2.1180E-02  
         27   1        -3.3398E+07  9.2719E+08 -3.2091E+08 -4.4508E-03  1.3389E-02 -1.1919E-02  
         27   2        -4.5932E+07  9.1183E+08 -3.1353E+08 -4.5640E-03  1.3223E-02 -1.1645E-02  
         27   3         3.6028E+08  7.9381E+08 -4.2860E+08  1.7448E-03  9.7961E-03 -1.5920E-02  
         27   4         3.4927E+08  7.8113E+08 -4.2228E+08  1.6419E-03  9.6621E-03 -1.5685E-02  
         28   1         4.2692E+07  3.8522E+08 -2.1847E+08 -1.0411E-03  5.3202E-03 -8.1144E-03  
         28   2         3.6139E+07  3.7987E+08 -2.1521E+08 -1.1117E-03  5.2718E-03 -7.9936E-03  
         28   3         1.8980E+08  3.5196E+08 -2.1081E+08  1.2030E-03  4.2146E-03 -7.8302E-03  
         28   4         1.8416E+08  3.4747E+08 -2.0808E+08  1.1417E-03  4.1746E-03 -7.7286E-03  
         29   1        -7.5146E+07  4.9230E+07 -3.2841E+07 -1.2845E-03  1.0253E-03 -1.2198E-03  
         29   2        -7.4024E+07  5.1830E+07 -3.3854E+07 -1.2796E-03  1.0577E-03 -1.2574E-03  
         29   3        -5.8247E+07  1.3714E+08 -1.3111E+07 -1.4198E-03  2.2087E-03 -4.8698E-04  
         29   4        -5.6931E+07  1.4014E+08 -1.4333E+07 -1.4139E-03  2.2460E-03 -5.3237E-04  
         30   1        -4.3777E+08 -2.1805E+08  2.1225E+08 -5.3194E-03 -1.2388E-03  7.8837E-03  
         30   2        -4.2739E+08 -2.0851E+08  2.0690E+08 -5.2120E-03 -1.1470E-03  7.6850E-03  
         30   3        -5.3178E+08  1.4037E+08  1.3352E+08 -8.1984E-03  4.2844E-03  4.9594E-03  
         30   4        -5.1924E+08  1.5120E+08  1.2726E+08 -8.0657E-03  4.3854E-03  4.7266E-03  
         31   1        -1.0945E+09 -3.8259E+08  4.3680E+08 -1.3996E-02 -7.7475E-04  1.6224E-02  
         31   2        -1.0745E+09 -3.6964E+08  4.2864E+08 -1.3765E-02 -6.7581E-04  1.5921E-02  
         31   3        -1.2222E+09  2.9734E+08  7.2413E+07 -1.8735E-02  9.4858E-03  2.6896E-03  
         31   4        -1.1985E+09  3.1072E+08  6.3823E+07 -1.8453E-02  9.5754E-03  2.3706E-03  
         32   1        -1.7776E+09 -3.4393E+08  4.9525E+08 -2.3920E-02  2.7049E-03  1.8395E-02  
         32   2        -1.7471E+09 -3.3283E+08  4.8944E+08 -2.3532E-02  2.7329E-03  1.8179E-02  
         32   3        -1.8529E+09  8.5003E+07 -3.2747E+08 -2.6834E-02  9.1553E-03 -1.2163E-02  
         32   4        -1.8201E+09  9.5442E+07 -3.3095E+08 -2.6411E-02  9.1639E-03 -1.2292E-02  
         33   1        -6.5243E+07  2.2072E+09  2.7311E+08 -1.0392E-02  3.1812E-02  1.0144E-02  
         33   2        -7.5257E+07  2.1757E+09  2.7637E+08 -1.0400E-02  3.1404E-02  1.0265E-02  
         33   3         3.3460E+08  2.1330E+09 -5.2357E+08 -4.3616E-03  2.9038E-02 -1.9447E-02  
         33   4         3.2398E+08  2.1037E+09 -5.1805E+08 -4.3877E-03  2.8665E-02 -1.9242E-02  
         34   1        -2.3506E+08  1.6053E+09 -1.7426E+08 -1.0238E-02  2.3940E-02 -6.4727E-03  
         34   2        -2.4839E+08  1.5811E+09 -1.6573E+08 -1.0324E-02  2.3651E-02 -6.1556E-03  
         34   3         4.2106E+08  1.4645E+09 -5.5775E+08 -2.6138E-04  1.9117E-02 -2.0716E-02  
         34   4         4.0822E+08  1.4440E+09 -5.4960E+08 -3.5702E-04  1.8879E-02 -2.0414E-02  
         35   1        -4.3532E+07  9.1226E+08 -3.0037E+08 -4.5316E-03  1.3219E-02 -1.1157E-02  
         35   2        -5.5780E+07  8.9721E+08 -2.9315E+08 -4.6421E-03  1.3056E-02 -1.0888E-02  
         35   3         3.4472E+08  7.8450E+08 -4.0884E+08  1.5624E-03  9.7297E-03 -1.5186E-02  
         35   4         3.3396E+08  7.7206E+08 -4.0265E+08  1.4620E-03  9.5982E-03 -1.4956E-02  
         36   1         2.9057E+07  3.9216E+08 -2.0641E+08 -1.2656E-03  5.4777E-03 -7.6667E-03  
         36   2         2.2901E+07  3.8698E+08 -2.0332E+08 -1.3313E-03  5.4301E-03 -7.5519E-03  
         36   3         1.6655E+08  3.5810E+08 -2.0216E+08  8.4462E-04  4.4019E-03 -7.5087E-03  
         36   4         1.6125E+08  3.5376E+08 -1.9955E+08  7.8753E-04  4.3626E-03 -7.4120E-03  
         37   1        -8.3658E+07  7.1727E+07 -3.6458E+07 -1.5025E-03  1.3832E-03 -1.3542E-03  
         37   2        -8.2611E+07  7.4028E+07 -3.7369E+07 -1.4974E-03  1.4116E-03 -1.3880E-03  
         37   3        -7.0201E+07  1.4919E+08 -2.0208E+07 -1.6423E-03  2.4322E-03 -7.5059E-04  
         37   4        -6.8971E+07  1.5185E+08 -2.1305E+07 -1.6361E-03  2.4649E-03 -7.9133E-04  
         38   1        -4.3120E+08 -2.0010E+08  1.9486E+08 -5.3023E-03 -1.0106E-03  7.2378E-03  
         38   2        -4.2104E+08 -1.9082E+08  1.8964E+08 -5.1970E-03 -9.2154E-04  7.0439E-03  
         38   3        -5.2139E+08  1.5112E+08  1.1500E+08 -8.0961E-03  4.3934E-03  4.2715E-03  
         38   4        -5.0913E+08  1.6166E+08  1.0889E+08 -7.9661E-03  4.4914E-03  4.0446E-03  
         39   1        -1.0683E+09 -3.7437E+08  4.1575E+08 -1.3657E-02 -7.6973E-04  1.5442E-02  
         39   2        -1.0485E+09 -3.6161E+08  4.0771E+08 -1.3429E-02 -6.7219E-04  1.5144E-02  
         39   3        -1.1890E+09  3.0167E+08  5.2980E+07 -1.8278E-02  9.4052E-03  1.9678E-03  
         39   4        -1.1656E+09  3.1485E+08  4.4520E+07 -1.8001E-02  9.4934E-03  1.6536E-03  
         40   1        -1.7318E+09 -3.4674E+08  4.8320E+08 -2.3254E-02  2.4687E-03  1.7948E-02  
         40   2        -1.7017E+09 -3.3576E+08  4.7746E+08 -2.2871E-02  2.4965E-03  1.7734E-02  
         40   3        -1.8027E+09  8.1927E+07 -3.3453E+08 -2.6104E-02  8.8961E-03 -1.2426E-02  
         40   4        -1.7703E+09  9.2236E+07 -3.3797E+08 -2.5685E-02  8.9046E-03 -1.2553E-02  
         41   1        -6.1278E+07  2.1592E+09  2.7964E+08 -1.0129E-02  3.1109E-02  1.0387E-02  
         41   2        -7.1174E+07  2.1281E+09  2.8287E+08 -1.0137E-02  3.0706E-02  1.0507E-02  
         41   3         3.3874E+08  2.0893E+09 -5.1257E+08 -4.1152E-03  2.8396E-02 -1.9038E-02  
         41   4         3.2823E+08  2.0603E+09 -5.0711E+08 -4.1410E-03  2.8027E-02 -1.8835E-02  
         42   1        -2.3808E+08  1.5709E+09 -1.5560E+08 -1.0134E-02  2.3462E-02 -5.7793E-03  
         42   2        -2.5123E+08  1.5470E+09 -1.4718E+08 -1.0219E-02  2.3177E-02 -5.4666E-03  
         42   3         4.1587E+08  1.4375E+09 -5.3753E+08 -2.1981E-04  1.8754E-02 -1.9965E-02  
         42   4         4.0319E+08  1.4173E+09 -5.2948E+08 -3.1430E-04  1.8519E-02 -1.9666E-02  
         43   1        -5.3283E+07  8.9729E+08 -2.8044E+08 -4.6067E-03  1.3047E-02 -1.0416E-02  
         43   2        -6.5251E+07  8.8254E+08 -2.7338E+08 -4.7145E-03  1.2887E-02 -1.0154E-02  
         43   3         3.2952E+08  7.7493E+08 -3.8963E+08  1.3863E-03  9.6582E-03 -1.4472E-02  
         43   4         3.1900E+08  7.6273E+08 -3.8357E+08  1.2883E-03  9.5291E-03 -1.4247E-02  
         44   1         1.6259E+07  3.9841E+08 -1.9482E+08 -1.4752E-03  5.6218E-03 -7.2361E-03  
         44   2         1.0467E+07  3.9338E+08 -1.9187E+08 -1.5364E-03  5.5748E-03 -7.1267E-03  
         44   3         1.4470E+08  3.6341E+08 -1.9380E+08  5.0963E-04  4.5714E-03 -7.1981E-03  
         44   4         1.3971E+08  3.5920E+08 -1.9131E+08  4.5646E-04  4.5327E-03 -7.1060E-03  
         45   1        -9.1322E+07  9.2802E+07 -3.9892E+07 -1.7023E-03  1.7171E-03 -1.4817E-03  
         45   2        -9.0335E+07  9.4829E+07 -4.0712E+07 -1.6969E-03  1.7419E-03 -1.5122E-03  
         45   3        -8.1332E+07  1.6040E+08 -2.6947E+07 -1.8493E-03  2.6400E-03 -1.0009E-03  
         45   4        -8.0169E+07  1.6274E+08 -2.7931E+07 -1.8427E-03  2.6684E-03 -1.0375E-03  
         46   1        -4.2431E+08 -1.8265E+08  1.7802E+08 -5.2788E-03 -7.9081E-04  6.6121E-03  
         46   2        -4.1437E+08 -1.7361E+08  1.7292E+08 -5.1755E-03 -7.0429E-04  6.4229E-03  
         46   3        -5.1086E+08  1.6142E+08  9.7095E+07 -7.9898E-03  4.4954E-03  3.6064E-03  
         46   4        -4.9886E+08  1.7167E+08  9.1142E+07 -7.8623E-03  4.5904E-03  3.3853E-03  
         47   1        -1.0422E+09 -3.6635E+08  3.9529E+08 -1.3319E-02 -7.6703E-04  1.4682E-02  
         47   2        -1.0227E+09 -3.5376E+08  3.8736E+08 -1.3094E-02 -6.7084E-04  1.4388E-02  
         47   3        -1.1560E+09  3.0596E+08  3.4088E+07 -1.7826E-02  9.3253E-03  1.2661E-03  
         47   4        -1.1330E+09  3.1894E+08  2.5755E+07 -1.7553E-02  9.4122E-03  9.5663E-04  
         48   1        -1.6865E+09 -3.4933E+08  4.7148E+08 -2.2596E-02  2.2375E-03  1.7512E-02  
         48   2        -1.6567E+09 -3.3847E+08  4.6580E+08 -2.2217E-02  2.2650E-03  1.7301E-02  
         48   3        -1.7530E+09  7.9085E+07 -3.4145E+08 -2.5382E-02  8.6426E-03 -1.2682E-02  
         48   4        -1.7210E+09  8.9270E+07 -3.4485E+08 -2.4968E-02  8.6510E-03 -1.2809E-02  
         49   1        -5.7533E+07  2.1117E+09  2.8605E+08 -9.8720E-03  3.0414E-02  1.0625E-02  
         49   2        -6.7314E+07  2.0809E+09  2.8925E+08 -9.8798E-03  3.0016E-02  1.0743E-02  
         49   3         3.4268E+08  2.0460E+09 -5.0186E+08 -3.8733E-03  2.7760E-02 -1.8640E-02  
         49   4         3.3228E+08  2.0174E+09 -4.9645E+08 -3.8989E-03  2.7395E-02 -1.8440E-02  
         50   1        -2.4108E+08  1.5368E+09 -1.3741E+08 -1.0030E-02  2.2988E-02 -5.1037E-03  
         50   2        -2.5405E+08  1.5132E+09 -1.2910E+08 -1.0115E-02  2.2706E-02 -4.7953E-03  
         50   3         4.1080E+08  1.4107E+09 -5.1782E+08 -1.7716E-04  1.8392E-02 -1.9233E-02  
         50   4         3.9827E+08  1.3907E+09 -5.0987E+08 -2.7053E-04  1.8160E-02 -1.8938E-02  
         51   1        -6.2658E+07  8.8229E+08 -2.6110E+08 -4.6763E-03  1.2873E-02 -9.6981E-03  
         51   2        -7.4351E+07  8.6784E+08 -2.5419E+08 -4.7815E-03  1.2716E-02 -9.4415E-03  
         51   3         3.1471E+08  7.6513E+08 -3.7097E+08  1.2167E-03  9.5816E-03 -1.3779E-02  
         51   4         3.0442E+08  7.5316E+08 -3.6504E+08  1.1210E-03  9.4548E-03 -1.3559E-02  
         52   1         4.2578E+06  4.0397E+08 -1.8366E+08 -1.6705E-03  5.7527E-03 -6.8218E-03  
         52   2        -1.1995E+06  3.9908E+08 -1.8085E+08 -1.7275E-03  5.7062E-03 -6.7174E-03  
         52   3         1.2417E+08  3.6793E+08 -1.8572E+08  1.9698E-04  4.7240E-03 -6.8981E-03  
         52   4         1.1947E+08  3.6384E+08 -1.8335E+08  1.4744E-04  4.6857E-03 -6.8100E-03  
         53   1        -9.8180E+07  1.1252E+08 -4.3149E+07 -1.8848E-03  2.0282E-03 -1.6027E-03  
         53   2        -9.7238E+07  1.1430E+08 -4.3887E+07 -1.8790E-03  2.0495E-03 -1.6301E-03  
         53   3        -9.1652E+07  1.7080E+08 -3.3343E+07 -2.0413E-03  2.8328E-03 -1.2385E-03  
         53   4        -9.0541E+07  1.7285E+08 -3.4228E+07 -2.0342E-03  2.8573E-03 -1.2713E-03  
         54   1        -4.1714E+08 -1.6570E+08  1.6171E+08 -5.2490E-03 -5.7935E-04  6.0063E-03  
         54   2        -4.0741E+08 -1.5690E+08  1.5674E+08 -5.1477E-03 -4.9535E-04  5.8217E-03  
         54   3        -5.0019E+08  1.7128E+08  7.9790E+07 -7.8796E-03  4.5905E-03  2.9636E-03  
         54   4        -4.8845E+08  1.8126E+08  7.3987E+07 -7.7546E-03  4.6827E-03  2.7481E-03  
         55   1        -1.0162E+09 -3.5852E+08  3.7539E+08 -1.2981E-02 -7.6642E-04  1.3943E-02  
         55   2        -9.9696E+08 -3.4610E+08  3.6756E+08 -1.2759E-02 -6.7155E-04  1.3652E-02  
         55   3        -1.1234E+09  3.1020E+08  1.5724E+07 -1.7378E-02  9.2460E-03  5.8405E-04  
         55   4        -1.1007E+09  3.2299E+08  7.5149E+06 -1.7109E-02  9.3316E-03  2.7913E-04  
         56   1        -1.6416E+09 -3.5173E+08  4.6008E+08 -2.1944E-02  2.0108E-03  1.7089E-02  
         56   2        -1.6122E+09 -3.4099E+08  4.5445E+08 -2.1570E-02  2.0381E-03  1.6880E-02  
         56   3        -1.7038E+09  7.6472E+07 -3.4823E+08 -2.4668E-02  8.3947E-03 -1.2934E-02  
         56   4        -1.6722E+09  8.6536E+07 -3.5159E+08 -2.4260E-02  8.4030E-03 -1.3059E-02  
         57   1        -5.4003E+07  2.0647E+09  2.9233E+08 -9.6201E-03  2.9727E-02  1.0858E-02  
         57   2        -6.3673E+07  2.0342E+09  2.9550E+08 -9.6278E-03  2.9334E-02  1.0976E-02  
         57   3         3.4643E+08  2.0031E+09 -4.9142E+08 -3.6358E-03  2.7131E-02 -1.8253E-02  
         57   4         3.3614E+08  1.9748E+09 -4.8606E+08 -3.6612E-03  2.6770E-02 -1.8054E-02  
         58   1        -2.4407E+08  1.5030E+09 -1.1969E+08 -9.9282E-03  2.2518E-02 -4.4456E-03  
         58   2        -2.5686E+08  1.4798E+09 -1.1149E+08 -1.0011E-02  2.2240E-02 -4.1412E-03  
         58   3         4.0583E+08  1.3839E+09 -4.9862E+08 -1.3361E-04  1.8031E-02 -1.8520E-02  
         58   4         3.9345E+08  1.3642E+09 -4.9077E+08 -2.2588E-04  1.7802E-02 -1.8228E-02  
         59   1        -7.1663E+07  8.6726E+08 -2.4235E+08 -4.7406E-03  1.2697E-02 -9.0015E-03  
         59   2        -8.3089E+07  8.5310E+08 -2.3559E+08 -4.8431E-03  1.2543E-02 -8.7505E-03  
         59   3         3.0028E+08  7.5510E+08 -3.5286E+08  1.0536E-03  9.5002E-03 -1.3106E-02  
         59   4         2.9022E+08  7.4336E+08 -3.4704E+08  9.6015E-04  9.3757E-03 -1.2890E-02  
         60   1        -6.9837E+06  4.0886E+08 -1.7293E+08 -1.8520E-03  5.8708E-03 -6.4231E-03  
         60   2        -1.2134E+07  4.0409E+08 -1.7024E+08 -1.9051E-03  5.8247E-03 -6.3231E-03  
         60   3         1.0491E+08  3.7171E+08 -1.7791E+08 -9.4322E-05  4.8605E-03 -6.6082E-03  
         60   4         1.0048E+08  3.6771E+08 -1.7564E+08 -1.4051E-04  4.8224E-03 -6.5238E-03  
         61   1        -1.0427E+08  1.3094E+08 -4.6233E+07 -2.0507E-03  2.3174E-03 -1.7172E-03  
         61   2        -1.0336E+08  1.3248E+08 -4.6900E+07 -2.0444E-03  2.3356E-03 -1.7420E-03  
         61   3        -1.0118E+08  1.8043E+08 -3.9414E+07 -2.2186E-03  3.0111E-03 -1.4640E-03  
         61   4        -1.0010E+08  1.8222E+08 -4.0211E+07 -2.2110E-03  3.0321E-03 -1.4935E-03  
         62   1        -4.0970E+08 -1.4925E+08  1.4593E+08 -5.2132E-03 -3.7629E-04  5.4201E-03  
         62   2        -4.0016E+08 -1.4068E+08  1.4108E+08 -5.1137E-03 -2.9475E-04  5.2400E-03  
         62   3        -4.8939E+08  1.8072E+08  6.3078E+07 -7.7658E-03  4.6791E-03  2.3429E-03  
         62   4        -4.7790E+08  1.9042E+08  5.7421E+07 -7.6433E-03  4.7685E-03  2.1328E-03  
         63   1        -9.9035E+08 -3.5085E+08  3.5603E+08 -1.2644E-02 -7.6773E-04  1.3224E-02  
         63   2        -9.7136E+08 -3.3860E+08  3.4832E+08 -1.2425E-02 -6.7413E-04  1.2937E-02  
         63   3        -1.0910E+09  3.1440E+08 -2.1236E+06 -1.6934E-02  9.1674E-03 -7.8878E-05  
         63   4        -1.0687E+09  3.2701E+08 -1.0214E+07 -1.6669E-02  9.2517E-03 -3.7936E-04  
         64   1        -1.5972E+09 -3.5394E+08  4.4898E+08 -2.1300E-02  1.7887E-03  1.6677E-02  
         64   2        -1.5680E+09 -3.4331E+08  4.4341E+08 -2.0929E-02  1.8157E-03  1.6470E-02  
         64   3        -1.6552E+09  7.4080E+07 -3.5486E+08 -2.3964E-02  8.1521E-03 -1.3181E-02  
         64   4        -1.6240E+09  8.4027E+07 -3.5820E+08 -2.3560E-02  8.1604E-03 -1.3305E-02  
         65   1        -5.0681E+07  2.0181E+09  2.9849E+08 -9.3731E-03  2.9048E-02  1.1087E-02  
         65   2        -6.0243E+07  1.9881E+09  3.0164E+08 -9.3808E-03  2.8659E-02  1.1204E-02  
         65   3         3.5000E+08  1.9606E+09 -4.8125E+08 -3.4025E-03  2.6508E-02 -1.7875E-02  
         65   4         3.3982E+08  1.9325E+09 -4.7595E+08 -3.4278E-03  2.6151E-02 -1.7678E-02  
         66   1        -2.4704E+08  1.4695E+09 -1.0243E+08 -9.8272E-03  2.2052E-02 -3.8044E-03  
         66   2        -2.5966E+08  1.4466E+09 -9.4339E+07 -9.9093E-03  2.1779E-02 -3.5040E-03  
         66   3         4.0095E+08  1.3573E+09 -4.7990E+08 -8.9290E-05  1.7672E-02 -1.7825E-02  
         66   4         3.8872E+08  1.3378E+09 -4.7214E+08 -1.8051E-04  1.7446E-02 -1.7537E-02  
         67   1        -8.0306E+07  8.5222E+08 -2.2417E+08 -4.7996E-03  1.2519E-02 -8.3263E-03  
         67   2        -9.1473E+07  8.3833E+08 -2.1756E+08 -4.8996E-03  1.2368E-02 -8.0807E-03  
         67   3         2.8626E+08  7.4486E+08 -3.3527E+08  8.9716E-04  9.4141E-03 -1.2453E-02  
         67   4         2.7642E+08  7.3335E+08 -3.2958E+08  8.0592E-04  9.2917E-03 -1.2242E-02  
         68   1        -1.7501E+07  4.1309E+08 -1.6259E+08 -2.0204E-03  5.9763E-03 -6.0392E-03  
         68   2        -2.2368E+07  4.0842E+08 -1.6001E+08 -2.0699E-03  5.9304E-03 -5.9433E-03  
         68   3         8.6865E+07  3.7477E+08 -1.7037E+08 -3.6522E-04  4.9815E-03 -6.3281E-03  
         68   4         8.2676E+07  3.7086E+08 -1.6819E+08 -4.0830E-04  4.9436E-03 -6.2470E-03  
         69   1        -1.0963E+08  1.4811E+08 -4.9151E+07 -2.2009E-03  2.5857E-03 -1.8256E-03  
         69   2        -1.0874E+08  1.4945E+08 -4.9754E+07 -2.1940E-03  2.6010E-03 -1.8480E-03  
         69   3        -1.0993E+08  1.8932E+08 -4.5173E+07 -2.3817E-03  3.1757E-03 -1.6779E-03  
         69   4        -1.0888E+08  1.9087E+08 -4.5891E+07 -2.3734E-03  3.1933E-03 -1.7045E-03  
         70   1        -4.0200E+08 -1.3331E+08  1.3067E+08 -5.1715E-03 -1.8163E-04  4.8534E-03  
         70   2        -3.9266E+08 -1.2497E+08  1.2593E+08 -5.0739E-03 -1.0247E-04  4.6776E-03  
         70   3        -4.7849E+08  1.8973E+08  4.6946E+07 -7.6487E-03  4.7611E-03  1.7437E-03  
         70   4        -4.6725E+08  1.9918E+08  4.1432E+07 -7.5286E-03  4.8479E-03  1.5389E-03  
         71   1        -9.6461E+08 -3.4334E+08  3.3722E+08 -1.2309E-02 -7.7079E-04  1.2525E-02  
         71   2        -9.4586E+08 -3.3125E+08  3.2960E+08 -1.2093E-02 -6.7843E-04  1.2242E-02  
         71   3        -1.0590E+09  3.1856E+08 -1.9468E+07 -1.6493E-02  9.0894E-03 -7.2309E-04  
         71   4        -1.0370E+09  3.3099E+08 -2.7441E+07 -1.6232E-02  9.1725E-03 -1.0193E-03  
         72   1        -1.5531E+09 -3.5597E+08  4.3819E+08 -2.0661E-02  1.5708E-03  1.6276E-02  
         72   2        -1.5243E+09 -3.4546E+08  4.3268E+08 -2.0295E-02  1.5976E-03  1.6071E-02  
         72   3        -1.6071E+09  7.1903E+07 -3.6137E+08 -2.3267E-02  7.9148E-03 -1.3422E-02  
         72   4        -1.5762E+09  8.1735E+07 -3.6467E+08 -2.2868E-02  7.9230E-03 -1.3545E-02  
         73   1        -4.7561E+07  1.9721E+09  3.0454E+08 -9.1311E-03  2.8376E-02  1.1312E-02  
         73   2        -5.7018E+07  1.9423E+09  3.0765E+08 -9.1387E-03  2.7992E-02  1.1427E-02  
         73   3         3.5339E+08  1.9184E+09 -4.7135E+08 -3.1734E-03  2.5892E-02 -1.7507E-02  
         73   4         3.4331E+08  1.8907E+09 -4.6610E+08 -3.1985E-03  2.5538E-02 -1.7312E-02  
         74   1        -2.4999E+08  1.4364E+09 -8.5610E+07 -9.7272E-03  2.1591E-02 -3.1798E-03  
         74   2        -2.6245E+08  1.4138E+09 -7.7628E+07 -9.8082E-03  2.1321E-02 -2.8833E-03  
         74   3         3.9616E+08  1.3309E+09 -4.6166E+08 -4.4328E-05  1.7315E-02 -1.7147E-02  
         74   4         3.8407E+08  1.3116E+09 -4.5400E+08 -1.3452E-04  1.7091E-02 -1.6863E-02  
         75   1        -8.8596E+07  8.3718E+08 -2.0655E+08 -4.8536E-03  1.2339E-02 -7.6720E-03  
         75   2        -9.9510E+07  8.2355E+08 -2.0008E+08 -4.9511E-03  1.2192E-02 -7.4317E-03  
         75   3         2.7265E+08  7.3444E+08 -3.1821E+08  7.4736E-04  9.3235E-03 -1.1819E-02  
         75   4         2.6302E+08  7.2313E+08 -3.1264E+08  6.5829E-04  9.2032E-03 -1.1612E-02  
         76   1        -2.7326E+07  4.1668E+08 -1.5264E+08 -2.1761E-03  6.0696E-03 -5.6695E-03  
         76   2        -3.1936E+07  4.1209E+08 -1.5016E+08 -2.2223E-03  6.0238E-03 -5.5772E-03  
         76   3         6.9983E+07  3.7715E+08 -1.6309E+08 -6.1659E-04  5.0879E-03 -6.0575E-03  
         76   4         6.6017E+07  3.7331E+08 -1.6098E+08 -6.5680E-04  5.0501E-03 -5.9794E-03  
         77   1        -1.1429E+08  1.6409E+08 -5.1906E+07 -2.3360E-03  2.8340E-03 -1.9279E-03  
         77   2        -1.1342E+08  1.6524E+08 -5.2453E+07 -2.3285E-03  2.8467E-03 -1.9482E-03  
         77   3        -1.1792E+08  1.9751E+08 -5.0633E+07 -2.5310E-03  3.3269E-03 -1.8807E-03  
         77   4        -1.1688E+08  1.9884E+08 -5.1283E+07 -2.5219E-03  3.3415E-03 -1.9048E-03  
         78   1        -3.9407E+08 -1.1789E+08  1.1593E+08 -5.1243E-03  4.6819E-06  4.3059E-03  
         78   2        -3.8492E+08 -1.0977E+08  1.1131E+08 -5.0284E-03  8.1524E-05  4.1342E-03  
         78   3        -4.6749E+08  1.9834E+08  3.1385E+07 -7.5284E-03  4.8369E-03  1.1657E-03  
         78   4        -4.5648E+08  2.0753E+08  2.6009E+07 -7.4106E-03  4.9211E-03  9.6607E-04  
         79   1        -9.3898E+08 -3.3598E+08  3.1893E+08 -1.1974E-02 -7.7548E-04  1.1846E-02  
         79   2        -9.2047E+08 -3.2404E+08  3.1141E+08 -1.1761E-02 -6.8432E-04  1.1567E-02  
         79   3        -1.0272E+09  3.2268E+08 -3.6320E+07 -1.6057E-02  9.0120E-03 -1.3490E-03  
         79   4        -1.0055E+09  3.3493E+08 -4.4180E+07 -1.5799E-02  9.0939E-03 -1.6410E-03  
         80   1        -1.5094E+09 -3.5783E+08  4.2770E+08 -2.0030E-02  1.3570E-03  1.5886E-02  
         80   2        -1.4809E+09 -3.4742E+08  4.2224E+08 -1.9667E-02  1.3836E-03  1.5683E-02  
         80   3        -1.5595E+09  6.9933E+07 -3.6774E+08 -2.2578E-02  7.6825E-03 -1.3659E-02  
         80   4        -1.5290E+09  7.9654E+07 -3.7101E+08 -2.2184E-02  7.6906E-03 -1.3781E-02  
         81   1        -4.4637E+07  1.9264E+09  3.1047E+08 -8.8938E-03  2.7712E-02  1.1532E-02  
         81   2        -5.3992E+07  1.8970E+09  3.1356E+08 -8.9014E-03  2.7332E-02  1.1646E-02  
         81   3         3.5662E+08  1.8767E+09 -4.6171E+08 -2.9482E-03  2.5281E-02 -1.7149E-02  
         81   4         3.4664E+08  1.8492E+09 -4.5650E+08 -2.9731E-03  2.4931E-02 -1.6956E-02  
         82   1        -2.5292E+08  1.4035E+09 -6.9232E+07 -9.6282E-03  2.1134E-02 -2.5715E-03  
         82   2        -2.6523E+08  1.3812E+09 -6.1352E+07 -9.7083E-03  2.0868E-02 -2.2788E-03  
         82   3         3.9145E+08  1.3045E+09 -4.4389E+08  1.1806E-06  1.6959E-02 -1.6487E-02  
         82   4         3.7949E+08  1.2855E+09 -4.3632E+08 -8.8004E-05  1.6738E-02 -1.6206E-02  
         83   1        -9.6541E+07  8.2213E+08 -1.8949E+08 -4.9026E-03  1.2158E-02 -7.0381E-03  
         83   2        -1.0721E+08  8.0877E+08 -1.8316E+08 -4.9977E-03  1.2013E-02 -6.8030E-03  
         83   3         2.5944E+08  7.2383E+08 -3.0167E+08  6.0423E-04  9.2285E-03 -1.1205E-02  
         83   4         2.5003E+08  7.1274E+08 -2.9621E+08  5.1727E-04  9.1104E-03 -1.1002E-02  
         84   1        -3.6492E+07  4.1963E+08 -1.4305E+08 -2.3197E-03  6.1511E-03 -5.3134E-03  
         84   2        -4.0865E+07  4.1511E+08 -1.4066E+08 -2.3628E-03  6.1053E-03 -5.2245E-03  
         84   3         5.4217E+07  3.7889E+08 -1.5605E+08 -8.4928E-04  5.1803E-03 -5.7961E-03  
         84   4         5.0454E+07  3.7511E+08 -1.5402E+08 -8.8684E-04  5.1425E-03 -5.7207E-03  
         85   1        -1.1830E+08  1.7893E+08 -5.4502E+07 -2.4568E-03  3.0631E-03 -2.0244E-03  
         85   2        -1.1743E+08  1.7991E+08 -5.5000E+07 -2.4486E-03  3.0734E-03 -2.0429E-03  
         85   3        -1.2517E+08  2.0503E+08 -5.5807E+07 -2.6668E-03  3.4655E-03 -2.0728E-03  
         85   4        -1.2413E+08  2.0617E+08 -5.6396E+07 -2.6569E-03  3.4773E-03 -2.0947E-03  
         86   1        -3.8591E+08 -1.0298E+08  1.0169E+08 -5.0716E-03  1.8271E-04  3.7772E-03  
         86   2        -3.7695E+08 -9.5074E+07  9.7183E+07 -4.9775E-03  2.5730E-04  3.6097E-03  
         86   3        -4.5640E+08  2.0655E+08  1.6384E+07 -7.4052E-03  4.9067E-03  6.0854E-04  
         86   4        -4.4562E+08  2.1549E+08  1.1142E+07 -7.2895E-03  4.9883E-03  4.1385E-04  
         87   1        -9.1347E+08 -3.2876E+08  3.0116E+08 -1.1641E-02 -7.8167E-04  1.1186E-02  
         87   2        -8.9521E+08 -3.1698E+08  2.9374E+08 -1.1430E-02 -6.9168E-04  1.0910E-02  
         87   3        -9.9569E+08  3.2675E+08 -5.2690E+07 -1.5624E-02  8.9351E-03 -1.9570E-03  
         87   4        -9.7428E+08  3.3883E+08 -6.0440E+07 -1.5370E-02  9.0159E-03 -2.2449E-03  
         88   1        -1.4661E+09 -3.5953E+08  4.1750E+08 -1.9404E-02  1.1473E-03  1.5507E-02  
         88   2        -1.4379E+09 -3.4922E+08  4.1209E+08 -1.9045E-02  1.1737E-03  1.5306E-02  
         88   3        -1.5123E+09  6.8163E+07 -3.7399E+08 -2.1897E-02  7.4552E-03 -1.3891E-02  
         88   4        -1.4822E+09  7.7778E+07 -3.7723E+08 -2.1507E-02  7.4632E-03 -1.4011E-02  
         89   1        -4.1902E+07  1.8813E+09  3.1630E+08 -8.6612E-03  2.7055E-02  1.1748E-02  
         89   2        -5.1158E+07  1.8522E+09  3.1935E+08 -8.6687E-03  2.6679E-02  1.1862E-02  
         89   3         3.5969E+08  1.8352E+09 -4.5232E+08 -2.7269E-03  2.4676E-02 -1.6800E-02  
         89   4         3.4980E+08  1.8080E+09 -4.4716E+08 -2.7516E-03  2.4330E-02 -1.6609E-02  
         90   1        -2.5584E+08  1.3709E+09 -5.3283E+07 -9.5302E-03  2.0681E-02 -1.9791E-03  
         90   2        -2.6799E+08  1.3489E+09 -4.5502E+07 -9.6093E-03  2.0418E-02 -1.6901E-03  
         90   3         3.8681E+08  1.2784E+09 -4.2658E+08  4.7154E-05  1.6604E-02 -1.5844E-02  
         90   4         3.7499E+08  1.2596E+09 -4.1909E+08 -4.1052E-05  1.6386E-02 -1.5566E-02  
         91   1        -1.0415E+08  8.0709E+08 -1.7296E+08 -4.9467E-03  1.1976E-02 -6.4244E-03  
         91   2        -1.1458E+08  7.9398E+08 -1.6677E+08 -5.0395E-03  1.1834E-02 -6.1943E-03  
         91   3         2.4666E+08  7.1306E+08 -2.8564E+08  4.6775E-04  9.1294E-03 -1.0609E-02  
         91   4         2.3745E+08  7.0217E+08 -2.8029E+08  3.8285E-04  9.0133E-03 -1.0411E-02  
         92   1        -4.5027E+07  4.2196E+08 -1.3382E+08 -2.4517E-03  6.2210E-03 -4.9704E-03  
         92   2        -4.9184E+07  4.1750E+08 -1.3150E+08 -2.4919E-03  6.1751E-03 -4.8844E-03  
         92   3         3.9519E+07  3.8002E+08 -1.4925E+08 -1.0641E-03  5.2595E-03 -5.5436E-03  
         92   4         3.5943E+07  3.7629E+08 -1.4728E+08 -1.0992E-03  5.2215E-03 -5.4706E-03  
         93   1        -1.2168E+08  1.9267E+08 -5.6944E+07 -2.5640E-03  3.2739E-03 -2.1151E-03  
         93   2        -1.2081E+08  1.9350E+08 -5.7400E+07 -2.5551E-03  3.2820E-03 -2.1320E-03  
         93   3        -1.3170E+08  2.1191E+08 -6.0704E+07 -2.7897E-03  3.5918E-03 -2.2547E-03  
         93   4        -1.3066E+08  2.1287E+08 -6.1241E+07 -2.7789E-03  3.6010E-03 -2.2747E-03  
         94   1        -3.7755E+08 -8.8587E+07  8.7963E+07 -5.0139E-03  3.5253E-04  3.2672E-03  
         94   2        -3.6877E+08 -8.0885E+07  8.3558E+07 -4.9215E-03  4.2494E-04  3.1036E-03  
         94   3        -4.4522E+08  2.1437E+08  1.9312E+06 -7.2791E-03  4.9705E-03  7.1729E-05  
         94   4        -4.3467E+08  2.2307E+08 -3.1803E+06 -7.1656E-03  5.0496E-03 -1.1813E-04  
         95   1        -8.8809E+08 -3.2168E+08  2.8389E+08 -1.1308E-02 -7.8928E-04  1.0544E-02  
         95   2        -8.7006E+08 -3.1005E+08  2.7656E+08 -1.1101E-02 -7.0042E-04  1.0272E-02  
         95   3        -9.6446E+08  3.3079E+08 -6.8588E+07 -1.5196E-02  8.8589E-03 -2.5476E-03  
         95   4        -9.4335E+08  3.4269E+08 -7.6232E+07 -1.4945E-02  8.9386E-03 -2.8315E-03  
         96   1        -1.4232E+09 -3.6107E+08  4.0758E+08 -1.8784E-02  9.4135E-04  1.5139E-02  
         96   2        -1.3953E+09 -3.5087E+08  4.0223E+08 -1.8429E-02  9.6754E-04  1.4940E-02  
         96   3        -1.4656E+09  6.6588E+07 -3.8012E+08 -2.1223E-02  7.2326E-03 -1.4119E-02  
         96   4        -1.4358E+09  7.6098E+07 -3.8332E+08 -2.0838E-02  7.2406E-03 -1.4238E-02  
         97   1        -3.9351E+07  1.8365E+09  3.2201E+08 -8.4329E-03  2.6405E-02  1.1960E-02  
         97   2        -4.8510E+07  1.8077E+09  3.2504E+08 -8.4404E-03  2.6033E-02  1.2073E-02  
         97   3         3.6260E+08  1.7942E+09 -4.4318E+08 -2.5092E-03  2.4077E-02 -1.6461E-02  
         97   4         3.5281E+08  1.7672E+09 -4.3806E+08 -2.5338E-03  2.3734E-02 -1.6271E-02  
         98   1        -2.5874E+08  1.3386E+09 -3.7752E+07 -9.4332E-03  2.0232E-02 -1.4022E-03  
         98   2        -2.7073E+08  1.3169E+09 -3.0068E+07 -9.5114E-03  1.9973E-02 -1.1168E-03  
         98   3         3.8224E+08  1.2523E+09 -4.0972E+08  9.3525E-05  1.6252E-02 -1.5218E-02  
         98   4         3.7056E+08  1.2337E+09 -4.0232E+08  6.2743E-06  1.6036E-02 -1.4943E-02  
         99   1        -1.1142E+08  7.9205E+08 -1.5697E+08 -4.9863E-03  1.1793E-02 -5.8304E-03  
         99   2        -1.2162E+08  7.7919E+08 -1.5091E+08 -5.0768E-03  1.1653E-02 -5.6051E-03  
         99   3         2.3429E+08  7.0214E+08 -2.7011E+08  3.3789E-04  9.0264E-03 -1.0033E-02  
         99   4         2.2528E+08  6.9144E+08 -2.6487E+08  2.5498E-04  8.9122E-03 -9.8379E-03  
        100   1        -5.2961E+07  4.2369E+08 -1.2492E+08 -2.5724E-03  6.2798E-03 -4.6399E-03  
        100   2        -5.6921E+07  4.1929E+08 -1.2268E+08 -2.6101E-03  6.2338E-03 -4.5566E-03  
        100   3         2.5846E+07  3.8057E+08 -1.4268E+08 -1.2618E-03  5.3259E-03 -5.2997E-03  
        100   4         2.2440E+07  3.7688E+08 -1.4078E+08 -1.2946E-03  5.2879E-03 -5.2288E-03  
        101   1        -1.2446E+08  2.0536E+08 -5.9234E+07 -2.6582E-03  3.4672E-03 -2.2001E-03  
        101   2        -1.2358E+08  2.0605E+08 -5.9654E+07 -2.6485E-03  3.4732E-03 -2.2157E-03  
        101   3        -1.3754E+08  2.1818E+08 -6.5335E+07 -2.9000E-03  3.7063E-03 -2.4267E-03  
        101   4        -1.3649E+08  2.1898E+08 -6.5827E+07 -2.8883E-03  3.7132E-03 -2.4450E-03  
        102   1        -3.6899E+08 -7.4701E+07  7.4725E+07 -4.9512E-03  5.1425E-04  2.7755E-03  
        102   2        -3.6039E+08 -6.7199E+07  7.0424E+07 -4.8604E-03  5.8454E-04  2.6157E-03  
        102   3        -4.3398E+08  2.2181E+08 -1.1983E+07 -7.1503E-03  5.0286E-03 -4.4509E-04  
        102   4        -4.2364E+08  2.3028E+08 -1.6969E+07 -7.0390E-03  5.1053E-03 -6.3027E-04  
        103   1        -8.6283E+08 -3.1472E+08  2.6711E+08 -1.0977E-02 -7.9821E-04  9.9212E-03  
        103   2        -8.4502E+08 -3.0324E+08  2.5987E+08 -1.0772E-02 -7.1046E-04  9.6525E-03  
        103   3        -9.3350E+08  3.3477E+08 -8.4026E+07 -1.4771E-02  8.7832E-03 -3.1210E-03  
        103   4        -9.1268E+08  3.4652E+08 -9.1565E+07 -1.4523E-02  8.8618E-03 -3.4010E-03  
        104   1        -1.3807E+09 -3.6246E+08  3.9795E+08 -1.8170E-02  7.3914E-04  1.4781E-02  
        104   2        -1.3530E+09 -3.5235E+08  3.9264E+08 -1.7819E-02  7.6512E-04  1.4584E-02  
        104   3        -1.4194E+09  6.5199E+07 -3.8612E+08 -2.0557E-02  7.0146E-03 -1.4342E-02  
        104   4        -1.3899E+09  7.4609E+07 -3.8930E+08 -2.0175E-02  7.0225E-03 -1.4460E-02  
        105   1        -3.6978E+07  1.7922E+09  3.2762E+08 -8.2091E-03  2.5761E-02  1.2169E-02  
        105   2        -4.6043E+07  1.7637E+09  3.3062E+08 -8.2165E-03  2.5393E-02  1.2280E-02  
        105   3         3.6537E+08  1.7534E+09 -4.3428E+08 -2.2952E-03  2.3483E-02 -1.6130E-02  
        105   4         3.5567E+08  1.7268E+09 -4.2921E+08 -2.3195E-03  2.3144E-02 -1.5942E-02  
        106   1        -2.6162E+08  1.3066E+09 -2.2632E+07 -9.3372E-03  1.9787E-02 -8.4061E-04  
        106   2        -2.7346E+08  1.2852E+09 -1.5043E+07 -9.4144E-03  1.9531E-02 -5.5873E-04  
        106   3         3.7773E+08  1.2264E+09 -3.9330E+08  1.4024E-04  1.5901E-02 -1.4608E-02  
        106   4         3.6618E+08  1.2080E+09 -3.8598E+08  5.3922E-05  1.5688E-02 -1.4336E-02  
        107   1        -1.1838E+08  7.7703E+08 -1.4150E+08 -5.0212E-03  1.1608E-02 -5.2557E-03  
        107   2        -1.2835E+08  7.6441E+08 -1.3556E+08 -5.1096E-03  1.1470E-02 -5.0351E-03  
        107   3         2.2234E+08  6.9107E+08 -2.5507E+08  2.1459E-04  8.9196E-03 -9.4742E-03  
        107   4         2.1352E+08  6.8057E+08 -2.4994E+08  1.3362E-04  8.8073E-03 -9.2833E-03  
        108   1        -6.0321E+07  4.2485E+08 -1.1635E+08 -2.6825E-03  6.3277E-03 -4.3216E-03  
        108   2        -6.4102E+07  4.2048E+08 -1.1417E+08 -2.7178E-03  6.2815E-03 -4.2406E-03  
        108   3         1.3156E+07  3.8057E+08 -1.3634E+08 -1.4431E-03  5.3804E-03 -5.0642E-03  
        108   4         9.9045E+06  3.7692E+08 -1.3449E+08 -1.4739E-03  5.3421E-03 -4.9952E-03  
        109   1        -1.2669E+08  2.1705E+08 -6.1377E+07 -2.7401E-03  3.6437E-03 -2.2797E-03  
        109   2        -1.2579E+08  2.1761E+08 -6.1766E+07 -2.7297E-03  3.6478E-03 -2.2942E-03  
        109   3        -1.4271E+08  2.2386E+08 -6.9709E+07 -2.9982E-03  3.8097E-03 -2.5892E-03  
        109   4        -1.4163E+08  2.2452E+08 -7.0162E+07 -2.9856E-03  3.8144E-03 -2.6060E-03  
        110   1        -3.6026E+08 -6.1320E+07  6.1972E+07 -4.8838E-03  6.6799E-04  2.3018E-03  
        110   2        -3.5183E+08 -5.4012E+07  5.7771E+07 -4.7946E-03  7.3623E-04  2.1458E-03  
        110   3        -4.2267E+08  2.2887E+08 -2.5370E+07 -7.0191E-03  5.0811E-03 -9.4231E-04  
        110   4        -4.1255E+08  2.3712E+08 -3.0234E+07 -6.9098E-03  5.1555E-03 -1.1230E-03  
        111   1        -8.3770E+08 -3.0790E+08  2.5082E+08 -1.0648E-02 -8.0840E-04  9.3160E-03  
        111   2        -8.2011E+08 -2.9655E+08  2.4367E+08 -1.0445E-02 -7.2172E-04  9.0506E-03  
        111   3        -9.0282E+08  3.3872E+08 -9.9011E+07 -1.4349E-02  8.7081E-03 -3.6776E-03  
        111   4        -8.8228E+08  3.5031E+08 -1.0645E+08 -1.4105E-02  8.7856E-03 -3.9538E-03  
        112   1        -1.3385E+09 -3.6370E+08  3.8859E+08 -1.7562E-02  5.4051E-04  1.4433E-02  
        112   2        -1.3111E+09 -3.5369E+08  3.8333E+08 -1.7214E-02  5.6630E-04  1.4238E-02  
        112   3        -1.3736E+09  6.3992E+07 -3.9201E+08 -1.9897E-02  6.8011E-03 -1.4560E-02  
        112   4        -1.3444E+09  7.3304E+07 -3.9516E+08 -1.9520E-02  6.8089E-03 -1.4677E-02  
        113   1        -3.4776E+07  1.7483E+09  3.3312E+08 -7.9894E-03  2.5124E-02  1.2373E-02  
        113   2        -4.3750E+07  1.7201E+09  3.3610E+08 -7.9967E-03  2.4760E-02  1.2484E-02  
        113   3         3.6799E+08  1.7130E+09 -4.2562E+08 -2.0846E-03  2.2895E-02 -1.5809E-02  
        113   4         3.5837E+08  1.6866E+09 -4.2059E+08 -2.1088E-03  2.2559E-02 -1.5622E-02  
        114   1        -2.6448E+08  1.2749E+09 -7.9142E+06 -9.2421E-03  1.9347E-02 -2.9396E-04  
        114   2        -2.7618E+08  1.2537E+09 -4.1742E+05 -9.3185E-03  1.9094E-02 -1.5504E-05  
        114   3         3.7329E+08  1.2006E+09 -3.7731E+08  1.8726E-04  1.5552E-02 -1.4014E-02  
        114   4         3.6187E+08  1.1825E+09 -3.7007E+08  1.0185E-04  1.5341E-02 -1.3745E-02  
        115   1        -1.2501E+08  7.6204E+08 -1.2654E+08 -5.0518E-03  1.1422E-02 -4.6999E-03  
        115   2        -1.3477E+08  7.4964E+08 -1.2072E+08 -5.1380E-03  1.1287E-02 -4.4839E-03  
        115   3         2.1081E+08  6.7988E+08 -2.4052E+08  9.7788E-05  8.8091E-03 -8.9337E-03  
        115   4         2.0218E+08  6.6956E+08 -2.3549E+08  1.8698E-05  8.6987E-03 -8.7466E-03  
        116   1        -6.7132E+07  4.2543E+08 -1.0809E+08 -2.7823E-03  6.3653E-03 -4.0149E-03  
        116   2        -7.0750E+07  4.2109E+08 -1.0597E+08 -2.8154E-03  6.3188E-03 -3.9360E-03  
        116   3         1.4085E+06  3.8006E+08 -1.3022E+08 -1.6087E-03  5.4233E-03 -4.8368E-03  
        116   4        -1.7027E+06  3.7643E+08 -1.2841E+08 -1.6376E-03  5.3849E-03 -4.7696E-03  
        117   1        -1.2839E+08  2.2777E+08 -6.3374E+07 -2.8103E-03  3.8041E-03 -2.3539E-03  
        117   2        -1.2747E+08  2.2822E+08 -6.3738E+07 -2.7990E-03  3.8065E-03 -2.3674E-03  
        117   3        -1.4723E+08  2.2899E+08 -7.3836E+07 -3.0847E-03  3.9023E-03 -2.7425E-03  
        117   4        -1.4613E+08  2.2952E+08 -7.4256E+07 -3.0711E-03  3.9050E-03 -2.7581E-03  
        118   1        -3.5137E+08 -4.8440E+07  4.9698E+07 -4.8120E-03  8.1387E-04  1.8459E-03  
        118   2        -3.4310E+08 -4.1320E+07  4.5594E+07 -4.7243E-03  8.8013E-04  1.6935E-03  
        118   3        -4.1131E+08  2.3558E+08 -3.8240E+07 -6.8855E-03  5.1281E-03 -1.4203E-03  
        118   4        -4.0139E+08  2.4361E+08 -4.2986E+07 -6.7782E-03  5.2004E-03 -1.5966E-03  
        119   1        -8.1269E+08 -3.0119E+08  2.3500E+08 -1.0319E-02 -8.1978E-04  8.7284E-03  
        119   2        -7.9532E+08 -2.8999E+08  2.2794E+08 -1.0119E-02 -7.3416E-04  8.4663E-03  
        119   3        -8.7240E+08  3.4262E+08 -1.1355E+08 -1.3931E-02  8.6334E-03 -4.2177E-03  
        119   4        -8.5213E+08  3.5406E+08 -1.2089E+08 -1.3691E-02  8.7099E-03 -4.4903E-03  
        120   1        -1.2966E+09 -3.6481E+08  3.7949E+08 -1.6960E-02  3.4534E-04  1.4095E-02  
        120   2        -1.2695E+09 -3.5489E+08  3.7428E+08 -1.6615E-02  3.7094E-04  1.3902E-02  
        120   3        -1.3282E+09  6.2960E+07 -3.9778E+08 -1.9245E-02  6.5918E-03 -1.4775E-02  
        120   4        -1.2993E+09  7.2177E+07 -4.0090E+08 -1.8871E-02  6.5996E-03 -1.4891E-02  
        121   1        -3.2740E+07  1.7047E+09  3.3853E+08 -7.7738E-03  2.4494E-02  1.2574E-02  
        121   2        -4.1626E+07  1.6768E+09  3.4149E+08 -7.7810E-03  2.4133E-02  1.2684E-02  
        121   3         3.7047E+08  1.6730E+09 -4.1719E+08 -1.8774E-03  2.2312E-02 -1.5496E-02  
        121   4         3.6094E+08  1.6468E+09 -4.1221E+08 -1.9015E-03  2.1979E-02 -1.5311E-02  
        122   1        -2.6731E+08  1.2435E+09  6.4089E+06 -9.1480E-03  1.8910E-02  2.3805E-04  
        122   2        -2.7887E+08  1.2225E+09  1.3815E+07 -9.2234E-03  1.8660E-02  5.1315E-04  
        122   3         3.6891E+08  1.1750E+09 -3.6174E+08  2.3454E-04  1.5204E-02 -1.3436E-02  
        122   4         3.5761E+08  1.1570E+09 -3.5459E+08  1.5002E-04  1.4996E-02 -1.3170E-02  
        123   1        -1.3134E+08  7.4706E+08 -1.1207E+08 -5.0780E-03  1.1235E-02 -4.1627E-03  
        123   2        -1.4089E+08  7.3489E+08 -1.0638E+08 -5.1622E-03  1.1102E-02 -3.9511E-03  
        123   3         1.9969E+08  6.6858E+08 -2.2645E+08 -1.2599E-05  8.6953E-03 -8.4110E-03  
        123   4         1.9124E+08  6.5843E+08 -2.2151E+08 -8.9870E-05  8.5866E-03 -8.2275E-03  
        124   1        -7.3419E+07  4.2547E+08 -1.0014E+08 -2.8723E-03  6.3928E-03 -3.7195E-03  
        124   2        -7.6891E+07  4.2116E+08 -9.8066E+07 -2.9034E-03  6.3461E-03 -3.6425E-03  
        124   3        -9.4357E+06  3.7905E+08 -1.2431E+08 -1.7593E-03  5.4555E-03 -4.6174E-03  
        124   4        -1.2420E+07  3.7544E+08 -1.2254E+08 -1.7865E-03  5.4167E-03 -4.5516E-03  
        125   1        -1.2958E+08  2.3756E+08 -6.5230E+07 -2.8693E-03  3.9491E-03 -2.4228E-03  
        125   2        -1.2864E+08  2.3791E+08 -6.5572E+07 -2.8573E-03  3.9500E-03 -2.4355E-03  
        125   3        -1.5112E+08  2.3358E+08 -7.7722E+07 -3.1600E-03  3.9846E-03 -2.8868E-03  
        125   4        -1.4998E+08  2.3399E+08 -7.8115E+07 -3.1455E-03  3.9855E-03 -2.9014E-03  
        126   1        -3.4233E+08 -3.6055E+07  3.7893E+07 -4.7359E-03  9.5204E-04  1.4075E-03  
        126   2        -3.3421E+08 -2.9117E+07  3.3883E+07 -4.6497E-03  1.0164E-03  1.2585E-03  
        126   3        -3.9990E+08  2.4193E+08 -5.0603E+07 -6.7497E-03  5.1700E-03 -1.8795E-03  
        126   4        -3.9017E+08  2.4975E+08 -5.5235E+07 -6.6443E-03  5.2401E-03 -2.0516E-03  
        127   1        -7.8782E+08 -2.9461E+08  2.1964E+08 -9.9919E-03 -8.3231E-04  8.1582E-03  
        127   2        -7.7065E+08 -2.8354E+08  2.1267E+08 -9.7942E-03 -7.4771E-04  7.8991E-03  
        127   3        -8.4224E+08  3.4648E+08 -1.2766E+08 -1.3517E-02  8.5593E-03 -4.7417E-03  
        127   4        -8.2224E+08  3.5776E+08 -1.3491E+08 -1.3280E-02  8.6348E-03 -5.0108E-03  
        128   1        -1.2551E+09 -3.6578E+08  3.7066E+08 -1.6362E-02  1.5352E-04  1.3767E-02  
        128   2        -1.2283E+09 -3.5595E+08  3.6550E+08 -1.6021E-02  1.7893E-04  1.3576E-02  
        128   3        -1.2833E+09  6.2096E+07 -4.0344E+08 -1.8598E-02  6.3868E-03 -1.4985E-02  
        128   4        -1.2546E+09  7.1221E+07 -4.0653E+08 -1.8229E-02  6.3945E-03 -1.5100E-02  
        129   1        -3.0865E+07  1.6616E+09  3.4384E+08 -7.5621E-03  2.3869E-02  1.2771E-02  
        129   2        -3.9666E+07  1.6340E+09  3.4677E+08 -7.5693E-03  2.3512E-02  1.2880E-02  
        129   3         3.7282E+08  1.6332E+09 -4.0899E+08 -1.6735E-03  2.1734E-02 -1.5191E-02  
        129   4         3.6337E+08  1.6073E+09 -4.0405E+08 -1.6974E-03  2.1404E-02 -1.5008E-02  
        130   1        -2.7013E+08  1.2123E+09  2.0345E+07 -9.0547E-03  1.8477E-02  7.5568E-04  
        130   2        -2.8156E+08  1.1916E+09  2.7664E+07 -9.1293E-03  1.8230E-02  1.0275E-03  
        130   3         3.6459E+08  1.1495E+09 -3.4659E+08  2.8206E-04  1.4859E-02 -1.2874E-02  
        130   4         3.5341E+08  1.1317E+09 -3.3951E+08  1.9842E-04  1.4653E-02 -1.2611E-02  
        131   1        -1.3737E+08  7.3211E+08 -9.8099E+07 -5.1001E-03  1.1048E-02 -3.6437E-03  
        131   2        -1.4672E+08  7.2016E+08 -9.2516E+07 -5.1823E-03  1.0917E-02 -3.4363E-03  
        131   3         1.8898E+08  6.5717E+08 -2.1284E+08 -1.1666E-04  8.5782E-03 -7.9056E-03  
        131   4         1.8071E+08  6.4720E+08 -2.0800E+08 -1.9217E-04  8.4712E-03 -7.7256E-03  
        132   1        -7.9206E+07  4.2498E+08 -9.2478E+07 -2.9529E-03  6.4107E-03 -3.4349E-03  
        132   2        -8.2545E+07  4.2069E+08 -9.0449E+07 -2.9821E-03  6.3636E-03 -3.3595E-03  
        132   3        -1.9414E+07  3.7759E+08 -1.1861E+08 -1.8956E-03  5.4773E-03 -4.4057E-03  
        132   4        -2.2283E+07  3.7399E+08 -1.1688E+08 -1.9212E-03  5.4383E-03 -4.3412E-03  
        133   1        -1.3031E+08  2.4647E+08 -6.6947E+07 -2.9178E-03  4.0795E-03 -2.4866E-03  
        133   2        -1.2933E+08  2.4672E+08 -6.7272E+07 -2.9050E-03  4.0789E-03 -2.4987E-03  
        133   3        -1.5441E+08  2.3767E+08 -8.1375E+07 -3.2245E-03  4.0570E-03 -3.0225E-03  
        133   4        -1.5324E+08  2.3797E+08 -8.1746E+07 -3.2090E-03  4.0564E-03 -3.0363E-03  
        134   1        -3.3315E+08 -2.4159E+07  2.6550E+07 -4.6557E-03  1.0826E-03  9.8615E-04  
        134   2        -3.2519E+08 -1.7397E+07  2.2630E+07 -4.5710E-03  1.1451E-03  8.4056E-04  
        134   3        -3.8845E+08  2.4793E+08 -6.2469E+07 -6.6119E-03  5.2067E-03 -2.3203E-03  
        134   4        -3.7891E+08  2.5556E+08 -6.6991E+07 -6.5083E-03  5.2747E-03 -2.4882E-03  
        135   1        -7.6307E+08 -2.8814E+08  2.0475E+08 -9.6661E-03 -8.4594E-04  7.6048E-03  
        135   2        -7.4611E+08 -2.7720E+08  1.9785E+08 -9.4707E-03 -7.6234E-04  7.3489E-03  
        135   3        -8.1235E+08  3.5029E+08 -1.4134E+08 -1.3106E-02  8.4856E-03 -5.2500E-03  
        135   4        -7.9261E+08  3.6143E+08 -1.4849E+08 -1.2872E-02  8.5602E-03 -5.5155E-03  
        136   1        -1.2139E+09 -3.6662E+08  3.6209E+08 -1.5770E-02 -3.5069E-05  1.3449E-02  
        136   2        -1.1873E+09 -3.5688E+08  3.5697E+08 -1.5432E-02 -9.8407E-06  1.3259E-02  
        136   3        -1.2387E+09  6.1394E+07 -4.0898E+08 -1.7959E-02  6.1857E-03 -1.5191E-02  
        136   4        -1.2104E+09  7.0430E+07 -4.1205E+08 -1.7593E-02  6.1934E-03 -1.5305E-02  
        137   1        -2.9146E+07  1.6188E+09  3.4905E+08 -7.3542E-03  2.3251E-02  1.2965E-02  
        137   2        -3.7863E+07  1.5915E+09  3.5196E+08 -7.3614E-03  2.2897E-02  1.3073E-02  
        137   3         3.7503E+08  1.5938E+09 -4.0102E+08 -1.4728E-03  2.1161E-02 -1.4895E-02  
        137   4         3.6566E+08  1.5681E+09 -3.9612E+08 -1.4965E-03  2.0834E-02 -1.4713E-02  
        138   1        -2.7293E+08  1.1814E+09  3.3902E+07 -8.9623E-03  1.8047E-02  1.2592E-03  
        138   2        -2.8422E+08  1.1610E+09  4.1134E+07 -9.0360E-03  1.7804E-02  1.5278E-03  
        138   3         3.6032E+08  1.1241E+09 -3.3185E+08  3.2981E-04  1.4515E-02 -1.2326E-02  
        138   4         3.4926E+08  1.1066E+09 -3.2485E+08  2.4701E-04  1.4311E-02 -1.2066E-02  
        139   1        -1.4311E+08  7.1720E+08 -8.4604E+07 -5.1182E-03  1.0859E-02 -3.1424E-03  
        139   2        -1.5226E+08  7.0545E+08 -7.9132E+07 -5.1984E-03  1.0730E-02 -2.9392E-03  
        139   3         1.7868E+08  6.4566E+08 -1.9970E+08 -2.1450E-04  8.4579E-03 -7.4173E-03  
        139   4         1.7058E+08  6.3586E+08 -1.9494E+08 -2.8830E-04  8.3526E-03 -7.2407E-03  
        140   1        -8.4516E+07  4.2399E+08 -8.5100E+07 -3.0245E-03  6.4192E-03 -3.1608E-03  
        140   2        -8.7735E+07  4.1970E+08 -8.3110E+07 -3.0521E-03  6.3717E-03 -3.0869E-03  
        140   3        -2.8562E+07  3.7569E+08 -1.1312E+08 -2.0181E-03  5.4894E-03 -4.2014E-03  
        140   4        -3.1328E+07  3.7210E+08 -1.1141E+08 -2.0423E-03  5.4500E-03 -4.1381E-03  
        141   1        -1.3059E+08  2.5452E+08 -6.8527E+07 -2.9564E-03  4.1957E-03 -2.5453E-03  
        141   2        -1.2958E+08  2.5470E+08 -6.8840E+07 -2.9427E-03  4.1939E-03 -2.5569E-03  
        141   3        -1.5712E+08  2.4126E+08 -8.4802E+07 -3.2786E-03  4.1200E-03 -3.1498E-03  
        141   4        -1.5590E+08  2.4148E+08 -8.5157E+07 -3.2621E-03  4.1179E-03 -3.1630E-03  
        142   1        -3.2384E+08 -1.2745E+07  1.5661E+07 -4.5717E-03  1.2058E-03  5.8168E-04  
        142   2        -3.1603E+08 -6.1523E+06  1.1829E+07 -4.4883E-03  1.2665E-03  4.3935E-04  
        142   3        -3.7696E+08  2.5360E+08 -7.3849E+07 -6.4721E-03  5.2385E-03 -2.7430E-03  
        142   4        -3.6761E+08  2.6103E+08 -7.8264E+07 -6.3702E-03  5.3045E-03 -2.9070E-03  
        143   1        -7.3845E+08 -2.8178E+08  1.9030E+08 -9.3417E-03 -8.6063E-04  7.0681E-03  
        143   2        -7.2169E+08 -2.7097E+08  1.8349E+08 -9.1486E-03 -7.7800E-04  6.8152E-03  
        143   3        -7.8271E+08  3.5406E+08 -1.5461E+08 -1.2699E-02  8.4124E-03 -5.7427E-03  
        143   4        -7.6322E+08  3.6505E+08 -1.6167E+08 -1.2468E-02  8.4860E-03 -6.0048E-03  
        144   1        -1.1730E+09 -3.6734E+08  3.5377E+08 -1.5183E-02 -2.2053E-04  1.3140E-02  
        144   2        -1.1467E+09 -3.5768E+08  3.4869E+08 -1.4848E-02 -1.9547E-04  1.2951E-02  
        144   3        -1.1945E+09  6.0849E+07 -4.1443E+08 -1.7325E-02  5.9886E-03 -1.5393E-02  
        144   4        -1.1664E+09  6.9799E+07 -4.1747E+08 -1.6963E-02  5.9962E-03 -1.5506E-02  
        145   1        -2.7576E+07  1.5764E+09  3.5417E+08 -7.1501E-03  2.2639E-02  1.3155E-02  
        145   2        -3.6212E+07  1.5493E+09  3.5705E+08 -7.1572E-03  2.2288E-02  1.3262E-02  
        145   3         3.7712E+08  1.5546E+09 -3.9326E+08 -1.2751E-03  2.0592E-02 -1.4607E-02  
        145   4         3.6783E+08  1.5291E+09 -3.8840E+08 -1.2987E-03  2.0268E-02 -1.4426E-02  
        146   1        -2.7570E+08  1.1508E+09  4.7086E+07 -8.8707E-03  1.7622E-02  1.7489E-03  
        146   2        -2.8686E+08  1.1306E+09  5.4234E+07 -8.9436E-03  1.7381E-02  2.0144E-03  
        146   3         3.5611E+08  1.0989E+09 -3.1752E+08  3.7775E-04  1.4172E-02 -1.1793E-02  
        146   4         3.4517E+08  1.0816E+09 -3.1059E+08  2.9579E-04  1.3971E-02 -1.1536E-02  
        147   1        -1.4856E+08  7.0231E+08 -7.1577E+07 -5.1322E-03  1.0670E-02 -2.6586E-03  
        147   2        -1.5752E+08  6.9077E+08 -6.6213E+07 -5.2107E-03  1.0543E-02 -2.4593E-03  
        147   3         1.6879E+08  6.3407E+08 -1.8700E+08 -3.0622E-04  8.3348E-03 -6.9458E-03  
        147   4         1.6084E+08  6.2443E+08 -1.8234E+08 -3.7837E-04  8.2311E-03 -6.7725E-03  
        148   1        -8.9370E+07  4.2251E+08 -7.7995E+07 -3.0875E-03  6.4189E-03 -2.8970E-03  
        148   2        -9.2481E+07  4.1822E+08 -7.6039E+07 -3.1136E-03  6.3710E-03 -2.8243E-03  
        148   3        -3.6916E+07  3.7339E+08 -1.0781E+08 -2.1276E-03  5.4923E-03 -4.0045E-03  
        148   4        -3.9589E+07  3.6980E+08 -1.0614E+08 -2.1504E-03  5.4526E-03 -3.9422E-03  
        149   1        -1.3045E+08  2.6176E+08 -6.9974E+07 -2.9854E-03  4.2986E-03 -2.5990E-03  
        149   2        -1.2941E+08  2.6187E+08 -7.0277E+07 -2.9710E-03  4.2956E-03 -2.6103E-03  
        149   3        -1.5928E+08  2.4440E+08 -8.8010E+07 -3.3228E-03  4.1740E-03 -3.2690E-03  
        149   4        -1.5801E+08  2.4454E+08 -8.8352E+07 -3.3054E-03  4.1706E-03 -3.2816E-03  
        150   1        -3.1442E+08 -1.8041E+06  5.2167E+06 -4.4840E-03  1.3218E-03  1.9377E-04  
        150   2        -3.0675E+08  4.6239E+06  1.4694E+06 -4.4020E-03  1.3807E-03  5.4579E-05  
        150   3        -3.6545E+08  2.5895E+08 -8.4752E+07 -6.3304E-03  5.2654E-03 -3.1479E-03  
        150   4        -3.5627E+08  2.6618E+08 -8.9064E+07 -6.2304E-03  5.3295E-03 -3.3081E-03  
        151   1        -7.1397E+08 -2.7553E+08  1.7629E+08 -9.0187E-03 -8.7635E-04  6.5478E-03  
        151   2        -6.9740E+08 -2.6485E+08  1.6956E+08 -8.8278E-03 -7.9467E-04  6.2978E-03  
        151   3        -7.5332E+08  3.5778E+08 -1.6747E+08 -1.2295E-02  8.3396E-03 -6.2202E-03  
        151   4        -7.3408E+08  3.6864E+08 -1.7443E+08 -1.2067E-02  8.4123E-03 -6.4790E-03  
        152   1        -1.1324E+09 -3.6794E+08  3.4570E+08 -1.4601E-02 -4.0295E-04  1.2840E-02  
        152   2        -1.1063E+09 -3.5836E+08  3.4066E+08 -1.4269E-02 -3.7807E-04  1.2653E-02  
        152   3        -1.1507E+09  6.0456E+07 -4.1977E+08 -1.6698E-02  5.7952E-03 -1.5591E-02  
        152   4        -1.1229E+09  6.9321E+07 -4.2278E+08 -1.6338E-02  5.8027E-03 -1.5703E-02  
        153   1        -2.6151E+07  1.5344E+09  3.5919E+08 -6.9495E-03  2.2032E-02  1.3341E-02  
        153   2        -3.4709E+07  1.5075E+09  3.6206E+08 -6.9566E-03  2.1685E-02  1.3448E-02  
        153   3         3.7908E+08  1.5157E+09 -3.8572E+08 -1.0805E-03  2.0029E-02 -1.4327E-02  
        153   4         3.6987E+08  1.4905E+09 -3.8090E+08 -1.1039E-03  1.9707E-02 -1.4148E-02  
        154   1        -2.7846E+08  1.1205E+09  5.9904E+07 -8.7799E-03  1.7200E-02  2.2250E-03  
        154   2        -2.8948E+08  1.1005E+09  6.6970E+07 -8.8520E-03  1.6963E-02  2.4875E-03  
        154   3         3.5196E+08  1.0738E+09 -3.0357E+08  4.2590E-04  1.3832E-02 -1.1276E-02  
        154   4         3.4113E+08  1.0567E+09 -2.9672E+08  3.4475E-04  1.3633E-02 -1.1021E-02  
        155   1        -1.5374E+08  6.8747E+08 -5.9011E+07 -5.1425E-03  1.0480E-02 -2.1918E-03  
        155   2        -1.6250E+08  6.7612E+08 -5.3750E+07 -5.2191E-03  1.0355E-02 -1.9964E-03  
        155   3         1.5929E+08  6.2241E+08 -1.7475E+08 -3.9193E-04  8.2089E-03 -6.4907E-03  
        155   4         1.5150E+08  6.1292E+08 -1.7017E+08 -4.6249E-04  8.1068E-03 -6.3206E-03  
        156   1        -9.3788E+07  4.2056E+08 -7.1157E+07 -3.1422E-03  6.4100E-03 -2.6430E-03  
        156   2        -9.6804E+07  4.1628E+08 -6.9229E+07 -3.1670E-03  6.3617E-03 -2.5714E-03  
        156   3        -4.4510E+07  3.7070E+08 -1.0270E+08 -2.2246E-03  5.4865E-03 -3.8147E-03  
        156   4        -4.7099E+07  3.6712E+08 -1.0105E+08 -2.2462E-03  5.4464E-03 -3.7532E-03  
        157   1        -1.2993E+08  2.6822E+08 -7.1291E+07 -3.0056E-03  4.3886E-03 -2.6479E-03  
        157   2        -1.2884E+08  2.6827E+08 -7.1587E+07 -2.9903E-03  4.3846E-03 -2.6590E-03  
        157   3        -1.6090E+08  2.4709E+08 -9.1005E+07 -3.3575E-03  4.2194E-03 -3.3802E-03  
        157   4        -1.5959E+08  2.4716E+08 -9.1338E+07 -3.3391E-03  4.2148E-03 -3.3925E-03  
        158   1        -3.0491E+08  8.6704E+06 -4.7898E+06 -4.3929E-03  1.4306E-03 -1.7791E-04  
        158   2        -2.9738E+08  1.4940E+07 -8.4552E+06 -4.3122E-03  1.4879E-03 -3.1405E-04  
        158   3        -3.5391E+08  2.6397E+08 -9.5187E+07 -6.1871E-03  5.2877E-03 -3.5355E-03  
        158   4        -3.4490E+08  2.7102E+08 -9.9401E+07 -6.0887E-03  5.3499E-03 -3.6920E-03  
        159   1        -6.8962E+08 -2.6940E+08  1.6271E+08 -8.6971E-03 -8.9307E-04  6.0435E-03  
        159   2        -6.7324E+08 -2.5883E+08  1.5605E+08 -8.5084E-03 -8.1232E-04  5.7963E-03  
[...]
       612        0.000       1.311     -2.1602E+07   0.000     
       613       -1.190       0.000       0.000      2.5553E+06 
       614       -1.057     -1.3279E-02   0.000       0.000     
       615      -0.7568      4.6844E-03   0.000       0.000     
       616      -0.4034      4.8975E-02   0.000       0.000     
       617      -4.6802E-02  0.1107       0.000       0.000     
       618       9.3765E-03  0.4733       0.000       0.000     
       619       4.3748E-02  0.8426       0.000       0.000     
       620       4.2927E-02   1.165       0.000       0.000     
       621        0.000       1.311     -2.3082E+07   0.000     
       622       -1.190       0.000       0.000      3.9429E+06 
       623       -1.056     -1.5451E-02   0.000       0.000     
       624      -0.7538      8.5214E-04   0.000       0.000     
       625      -0.3983      4.3547E-02   0.000       0.000     
       626      -3.9422E-02  0.1034       0.000       0.000     
       627       1.4966E-02  0.4682       0.000       0.000     
       628       4.7832E-02  0.8395       0.000       0.000     
       629       4.5323E-02   1.164       0.000       0.000     
       630        0.000       1.311     -2.4563E+07   0.000     
       631       -1.190       0.000       0.000      5.3305E+06 
       632       -1.055     -1.7638E-02   0.000       0.000     
       633      -0.7508     -2.9957E-03   0.000       0.000     
       634      -0.3932      3.8109E-02   0.000       0.000     
       635      -3.2037E-02  9.6050E-02   0.000       0.000     
       636       2.0567E-02  0.4630       0.000       0.000     
       637       5.1933E-02  0.8363       0.000       0.000     
       638       4.7737E-02   1.163       0.000       0.000     
       639        0.000       1.311     -2.6044E+07   0.000     
       640       -1.190       0.000       0.000      6.7184E+06 
       641       -1.054     -1.9841E-02   0.000       0.000     
       642      -0.7478     -6.8592E-03   0.000       0.000     
       643      -0.3881      3.2659E-02   0.000       0.000     
       644      -2.4646E-02  8.8729E-02   0.000       0.000     
       645       2.6179E-02  0.4578       0.000       0.000     
       646       5.6052E-02  0.8332       0.000       0.000     
       647       5.0168E-02   1.162       0.000       0.000     
       648        0.000       1.311     -2.7528E+07   0.000     
       649       -1.190       0.000       0.000      8.1066E+06 
       650       -1.053     -2.2059E-02   0.000       0.000     
       651      -0.7449     -1.0739E-02   0.000       0.000     
       652      -0.3830      2.7198E-02   0.000       0.000     
       653      -1.7249E-02  8.1404E-02   0.000       0.000     
       654       3.1802E-02  0.4526       0.000       0.000     
       655       6.0188E-02  0.8300       0.000       0.000     
       656       5.2618E-02   1.161       0.000       0.000     
       657        0.000       1.311     -2.9012E+07   0.000     
       658       -1.190       0.000       0.000      9.4955E+06 
       659       -1.052     -2.4293E-02   0.000       0.000     
       660      -0.7419     -1.4634E-02   0.000       0.000     
       661      -0.3779      2.1726E-02   0.000       0.000     
       662      -9.8483E-03  7.4076E-02   0.000       0.000     
       663       3.7437E-02  0.4474       0.000       0.000     
       664       6.4343E-02  0.8268       0.000       0.000     
       665       5.5086E-02   1.160       0.000       0.000     
       666        0.000       1.311     -3.0499E+07   0.000     
       667       -1.190       0.000       0.000      1.0885E+07 
       668       -1.051     -2.6543E-02   0.000       0.000     
       669      -0.7388     -1.8546E-02   0.000       0.000     
       670      -0.3728      1.6243E-02   0.000       0.000     
       671      -2.4428E-03  6.6744E-02   0.000       0.000     
       672       4.3082E-02  0.4422       0.000       0.000     
       673       6.8515E-02  0.8237       0.000       0.000     
       674       5.7573E-02   1.159       0.000       0.000     
       675        0.000       1.311     -3.1988E+07   0.000     
       676       -1.190       0.000       0.000      1.2276E+07 
       677       -1.050     -2.8809E-02   0.000       0.000     
       678      -0.7358     -2.2474E-02   0.000       0.000     
       679      -0.3676      1.0750E-02   0.000       0.000     
       680       4.9668E-03  5.9409E-02   0.000       0.000     
       681       4.8738E-02  0.4370       0.000       0.000     
       682       7.2706E-02  0.8205       0.000       0.000     
       683       6.0079E-02   1.158       0.000       0.000     
       684        0.000       1.311     -3.3478E+07   0.000     
       685       -1.190       0.000       0.000      1.3668E+07 
       686       -1.049     -3.1092E-02   0.000       0.000     
       687      -0.7328     -2.6418E-02   0.000       0.000     
       688      -0.3625      5.2459E-03   0.000       0.000     
       689       1.2380E-02  5.2071E-02   0.000       0.000     
       690       5.4404E-02  0.4318       0.000       0.000     
       691       7.6915E-02  0.8173       0.000       0.000     
       692       6.2605E-02   1.157       0.000       0.000     
       693        0.000       1.311     -3.4972E+07   0.000     
       694       -1.190       0.000       0.000      1.5061E+07 
       695       -1.048     -3.3392E-02   0.000       0.000     
       696      -0.7298     -3.0380E-02   0.000       0.000     
       697      -0.3574     -2.6860E-04   0.000       0.000     
       698       1.9797E-02  4.4730E-02   0.000       0.000     
       699       6.0080E-02  0.4266       0.000       0.000     
       700       8.1142E-02  0.8141       0.000       0.000     
       701       6.5150E-02   1.156       0.000       0.000     
       702        0.000       1.311     -3.6467E+07   0.000     
       703       -1.190       0.000       0.000      1.6456E+07 
       704       -1.047     -3.5710E-02   0.000       0.000     
       705      -0.7267     -3.4358E-02   0.000       0.000     
       706      -0.3522     -5.7934E-03   0.000       0.000     
       707       2.7217E-02  3.7388E-02   0.000       0.000     
       708       6.5766E-02  0.4214       0.000       0.000     
       709       8.5388E-02  0.8109       0.000       0.000     
       710       6.7716E-02   1.154       0.000       0.000     
       711        0.000       1.311     -3.7966E+07   0.000     
       712       -1.190       0.000       0.000      1.7852E+07 
       713       -1.046     -3.8044E-02   0.000       0.000     
       714      -0.7237     -3.8352E-02   0.000       0.000     
       715      -0.3471     -1.1328E-02   0.000       0.000     
       716       3.4640E-02  3.0043E-02   0.000       0.000     
       717       7.1462E-02  0.4162       0.000       0.000     
       718       8.9652E-02  0.8077       0.000       0.000     
       719       7.0302E-02   1.153       0.000       0.000     
       720        0.000       1.311     -3.9468E+07   0.000     
       721       -1.190       0.000       0.000      1.9250E+07 
       722       -1.045     -4.0397E-02   0.000       0.000     
       723      -0.7207     -4.2364E-02   0.000       0.000     
       724      -0.3419     -1.6873E-02   0.000       0.000     
       725       4.2066E-02  2.2696E-02   0.000       0.000     
       726       7.7167E-02  0.4110       0.000       0.000     
       727       9.3936E-02  0.8045       0.000       0.000     
       728       7.2909E-02   1.152       0.000       0.000     
       729        0.000       1.311     -4.0973E+07   0.000     
       730       -1.190       0.000       0.000      2.0651E+07 
       731       -1.044     -4.2768E-02   0.000       0.000     
       732      -0.7176     -4.6393E-02   0.000       0.000     
       733      -0.3368     -2.2428E-02   0.000       0.000     
       734       4.9494E-02  1.5348E-02   0.000       0.000     
       735       8.2881E-02  0.4058       0.000       0.000     
       736       9.8238E-02  0.8013       0.000       0.000     
       737       7.5538E-02   1.151       0.000       0.000     
       738        0.000       1.311     -4.2481E+07   0.000     
       739       -1.190       0.000       0.000      2.2054E+07 
       740       -1.043     -4.5157E-02   0.000       0.000     
       741      -0.7145     -5.0439E-02   0.000       0.000     
       742      -0.3316     -2.7992E-02   0.000       0.000     
       743       5.6923E-02  7.9980E-03   0.000       0.000     
       744       8.8604E-02  0.4006       0.000       0.000     
       745       0.1026      0.7981       0.000       0.000     
       746       7.8187E-02   1.150       0.000       0.000     
       747        0.000       1.311     -4.3994E+07   0.000     
       748       -1.190       0.000       0.000      2.3459E+07 
       749       -1.042     -4.7565E-02   0.000       0.000     
       750      -0.7115     -5.4502E-02   0.000       0.000     
       751      -0.3264     -3.3566E-02   0.000       0.000     
       752       6.4355E-02  6.4723E-04   0.000       0.000     
       753       9.4335E-02  0.3954       0.000       0.000     
       754       0.1069      0.7948       0.000       0.000     
       755       8.0859E-02   1.149       0.000       0.000     
       756        0.000       1.311     -4.5510E+07   0.000     
       757       -1.190       0.000       0.000      2.4867E+07 
       758       -1.041     -4.9992E-02   0.000       0.000     
       759      -0.7084     -5.8583E-02   0.000       0.000     
       760      -0.3213     -3.9148E-02   0.000       0.000     
       761       7.1788E-02 -6.7045E-03   0.000       0.000     
       762       0.1001      0.3902       0.000       0.000     
       763       0.1113      0.7916       0.000       0.000     
       764       8.3553E-02   1.148       0.000       0.000     
       765        0.000       1.311     -4.7030E+07   0.000     
       766       -1.190       0.000       0.000      2.6277E+07 
       767       -1.040     -5.2438E-02   0.000       0.000     
       768      -0.7053     -6.2681E-02   0.000       0.000     
       769      -0.3161     -4.4739E-02   0.000       0.000     
       770       7.9222E-02 -1.4057E-02   0.000       0.000     
       771       0.1058      0.3849       0.000       0.000     
       772       0.1156      0.7884       0.000       0.000     
       773       8.6269E-02   1.147       0.000       0.000     
       774        0.000       1.311     -4.8555E+07   0.000     
       775       -1.190       0.000       0.000      2.7691E+07 
       776       -1.039     -5.4903E-02   0.000       0.000     
       777      -0.7022     -6.6796E-02   0.000       0.000     
       778      -0.3109     -5.0339E-02   0.000       0.000     
       779       8.6657E-02 -2.1410E-02   0.000       0.000     
       780       0.1116      0.3797       0.000       0.000     
       781       0.1200      0.7851       0.000       0.000     
       782       8.9009E-02   1.145       0.000       0.000     
       783        0.000       1.311     -5.0084E+07   0.000     
       784       -1.190       0.000       0.000      2.9108E+07 
       785       -1.038     -5.7389E-02   0.000       0.000     
       786      -0.6991     -7.0929E-02   0.000       0.000     
       787      -0.3057     -5.5947E-02   0.000       0.000     
       788       9.4092E-02 -2.8763E-02   0.000       0.000     
       789       0.1173      0.3745       0.000       0.000     
       790       0.1245      0.7819       0.000       0.000     
       791       9.1772E-02   1.144       0.000       0.000     
       792        0.000       1.311     -5.1618E+07   0.000     
       793       -1.190       0.000       0.000      3.0529E+07 
       794       -1.037     -5.9895E-02   0.000       0.000     
       795      -0.6960     -7.5079E-02   0.000       0.000     
       796      -0.3006     -6.1563E-02   0.000       0.000     
       797       0.1015     -3.6117E-02   0.000       0.000     
       798       0.1231      0.3693       0.000       0.000     
       799       0.1289      0.7786       0.000       0.000     
       800       9.4558E-02   1.143       0.000       0.000     
       801        0.000       1.311     -5.3157E+07   0.000     
       802       -1.190       0.000       0.000      3.1953E+07 
       803       -1.036     -6.2421E-02   0.000       0.000     
       804      -0.6929     -7.9247E-02   0.000       0.000     
       805      -0.2954     -6.7187E-02   0.000       0.000     
       806       0.1090     -4.3470E-02   0.000       0.000     
       807       0.1289      0.3641       0.000       0.000     
       808       0.1333      0.7754       0.000       0.000     
       809       9.7369E-02   1.142       0.000       0.000     
       810        0.000       1.311     -5.4702E+07   0.000     
       811       -1.190       0.000       0.000      3.3380E+07 
       812       -1.035     -6.4968E-02   0.000       0.000     
       813      -0.6898     -8.3433E-02   0.000       0.000     
       814      -0.2902     -7.2818E-02   0.000       0.000     
       815       0.1164     -5.0823E-02   0.000       0.000     
       816       0.1347      0.3588       0.000       0.000     
       817       0.1378      0.7721       0.000       0.000     
       818       0.1002       1.141       0.000       0.000     
       819        0.000       1.311     -5.6252E+07   0.000     
       820       -1.190       0.000       0.000      3.4812E+07 
       821       -1.034     -6.7536E-02   0.000       0.000     
       822      -0.6866     -8.7635E-02   0.000       0.000     
       823      -0.2850     -7.8456E-02   0.000       0.000     
       824       0.1238     -5.8176E-02   0.000       0.000     
       825       0.1404      0.3536       0.000       0.000     
       826       0.1423      0.7688       0.000       0.000     
       827       0.1031       1.140       0.000       0.000     
       828        0.000       1.311     -5.7807E+07   0.000     
       829       -1.190       0.000       0.000      3.6248E+07 
       830       -1.033     -7.0125E-02   0.000       0.000     
       831      -0.6835     -9.1856E-02   0.000       0.000     
       832      -0.2798     -8.4101E-02   0.000       0.000     
       833       0.1313     -6.5529E-02   0.000       0.000     
       834       0.1462      0.3484       0.000       0.000     
       835       0.1468      0.7656       0.000       0.000     
       836       0.1059       1.138       0.000       0.000     
       837        0.000       1.311     -5.9369E+07   0.000     
       838       -1.190       0.000       0.000      3.7688E+07 
       839       -1.031     -7.2737E-02   0.000       0.000     
       840      -0.6804     -9.6094E-02   0.000       0.000     
       841      -0.2746     -8.9753E-02   0.000       0.000     
       842       0.1387     -7.2881E-02   0.000       0.000     
       843       0.1520      0.3432       0.000       0.000     
       844       0.1514      0.7623       0.000       0.000     
       845       0.1089       1.137       0.000       0.000     
       846        0.000       1.311     -6.0936E+07   0.000     
       847       -1.190       0.000       0.000      3.9133E+07 
       848       -1.030     -7.5370E-02   0.000       0.000     
       849      -0.6772     -0.1003       0.000       0.000     
       850      -0.2694     -9.5410E-02   0.000       0.000     
       851       0.1461     -8.0233E-02   0.000       0.000     
       852       0.1578      0.3380       0.000       0.000     
       853       0.1559      0.7590       0.000       0.000     
       854       0.1118       1.136       0.000       0.000     
       855        0.000       1.311     -6.2510E+07   0.000     
       856       -1.190       0.000       0.000      4.0583E+07 
       857       -1.029     -7.8026E-02   0.000       0.000     
       858      -0.6741     -0.1046       0.000       0.000     
       859      -0.2642     -0.1011       0.000       0.000     
       860       0.1536     -8.7583E-02   0.000       0.000     
       861       0.1636      0.3327       0.000       0.000     
       862       0.1605      0.7557       0.000       0.000     
       863       0.1148       1.135       0.000       0.000     
       864        0.000       1.311     -6.4091E+07   0.000     
       865       -1.190       0.000       0.000      4.2038E+07 
       866       -1.028     -8.0704E-02   0.000       0.000     
       867      -0.6709     -0.1089       0.000       0.000     
       868      -0.2590     -0.1067       0.000       0.000     
       869       0.1610     -9.4933E-02   0.000       0.000     
       870       0.1694      0.3275       0.000       0.000     
       871       0.1651      0.7524       0.000       0.000     
       872       0.1177       1.134       0.000       0.000     
       873        0.000       1.310     -6.5679E+07   0.000     
       874       -1.190       0.000       0.000      4.3497E+07 
       875       -1.027     -8.3405E-02   0.000       0.000     
       876      -0.6678     -0.1132       0.000       0.000     
       877      -0.2538     -0.1124       0.000       0.000     
       878       0.1684     -0.1023       0.000       0.000     
       879       0.1752      0.3223       0.000       0.000     
       880       0.1697      0.7492       0.000       0.000     
       881       0.1208       1.132       0.000       0.000     
       882        0.000       1.310     -6.7273E+07   0.000     
       883       -1.190       0.000       0.000      4.4963E+07 
       884       -1.026     -8.6130E-02   0.000       0.000     
       885      -0.6646     -0.1175       0.000       0.000     
       886      -0.2486     -0.1181       0.000       0.000     
       887       0.1759     -0.1096       0.000       0.000     
       888       0.1810      0.3171       0.000       0.000     
       889       0.1743      0.7459       0.000       0.000     
       890       0.1238       1.131       0.000       0.000     
       891        0.000       1.310     -6.8875E+07   0.000     
       892       -1.190       0.000       0.000      4.6433E+07 
       893       -1.025     -8.8879E-02   0.000       0.000     
       894      -0.6615     -0.1219       0.000       0.000     
       895      -0.2434     -0.1238       0.000       0.000     
       896       0.1833     -0.1170       0.000       0.000     
       897       0.1869      0.3119       0.000       0.000     
       898       0.1789      0.7426       0.000       0.000     
       899       0.1269       1.130       0.000       0.000     
       900        0.000       1.310     -7.0484E+07   0.000     
       901       -1.190       0.000       0.000      9.4109E+08 
       902       -1.024     -9.1651E-02   0.000       0.000     
       903      -0.6583     -0.1262       0.000       0.000     
       904      -0.2382     -0.1295       0.000       0.000     
       905       0.1907     -0.1243       0.000       0.000     
       906       0.1927      0.3067       0.000       0.000     
       907       0.1836      0.7393       0.000       0.000     
       908       0.1300       1.129       0.000       0.000     
       909        0.000       1.310     -1.0556E+09   0.000     

 MAXIMUM         0.1927       1.311      5.4759E+08  9.4109E+08
 AT NODE               906         711           9         901

 MINIMUM         -1.190     -0.1295     -1.0556E+09 -5.3062E+08
 AT NODE               757         904         909           1


          THE ANALYSIS HAS BEEN COMPLETED



                              ANALYSIS COMPLETE
                              WITH    99 WARNING MESSAGES ON THE DAT FILE



     JOB TIME SUMMARY
       USER TIME (SEC)      =  0.40000    
       SYSTEM TIME (SEC)    =  0.10000    
       TOTAL CPU TIME (SEC) =  0.50000    
       WALLCLOCK TIME (SEC) =          1
